         262
 Energy:  -1422.7610225999999     
 X   0.00000000       0.00000000       0.00000000    
 X   0.00000000      -15.1462221       0.00000000    
 X   0.00000000      -7.57311106      -13.1170130    
 X   29.0000000       0.00000000       0.00000000    
 X   0.00000000      -22.7193336      -13.1170130    
 X   29.0000000      -15.1462221       0.00000000    
 X   29.0000000      -7.57311106      -13.1170130    
 X   29.0000000      -22.7193336      -13.1170130    
 Ni   3.02601004      -10.0974798      -5.82978010    
 Ni   3.02601004      -12.6218500      -10.2021198    
 Ni   3.02601004      -7.57311010      -1.45745003    
 Ni   3.02601004      -15.1462202      -5.82978010    
 Ni   3.02601004      -17.6705894      -10.2021198    
 Ni   3.02601004      -12.6218500      -1.45745003    
 Ni   3.02601004      -5.04873991      -5.82978010    
 Ni   3.02601004      -7.57311010      -10.2021198    
 Ni   3.02601004      -2.52436996      -1.45745003    
 Ni   5.02237988      -12.6218500      -7.28723001    
 Ni   5.02237988      -15.1462202      -11.6595697    
 Ni   5.02237988      -10.0974798      -2.91489005    
 Ni   5.02237988      -17.6705894      -7.28723001    
 Ni   5.02237988      -20.1949596      -11.6595697    
 Ni   5.02237988      -15.1462202      -2.91489005    
 Ni   5.02237988      -7.57311010      -7.28723001    
 Ni   5.02237988      -10.0974798      -11.6595697    
 Ni   5.02237988      -5.04873991      -2.91489005    
 Ni   7.03247023      -15.1462202      -8.74468040    
 Ni   7.03247023      -10.0974798       0.00000000    
 Ni   7.03247023      -12.6218500      -4.37234020    
 Ni   7.03247023      -20.1949596      -8.74468040    
 Ni   7.03247023       0.00000000       0.00000000    
 Ni   7.03247023      -17.6705894      -4.37234020    
 Ni   7.03247023      -10.0974798      -8.74468040    
 Ni   7.03247023      -5.04873991       0.00000000    
 Ni   7.03247023      -7.57311010      -4.37234020    
 Ni   9.04018974      -17.6705894      -10.2021198    
 Ni   9.04018974      -12.6218500      -1.45745003    
 Ni   9.04018974      -15.1462202      -5.82978010    
 Ni   9.04018974      -7.57311010      -10.2021198    
 Ni   9.04018974      -2.52436996      -1.45745003    
 Ni   9.04018974      -5.04873991      -5.82978010    
 Ni   9.04018974      -12.6218500      -10.2021198    
 Ni   9.04018974      -7.57311010      -1.45745003    
 Ni   9.04018974      -10.0974798      -5.82978010    
 Ni   11.0479097      -20.1949596      -11.6595697    
 Ni   11.0479097      -15.1462202      -2.91489005    
 Ni   11.0479097      -17.6705894      -7.28723001    
 Ni   11.0479097      -10.0974798      -11.6595697    
 Ni   11.0479097      -5.04873991      -2.91489005    
 Ni   11.0479097      -7.57311010      -7.28723001    
 Ni   11.0479097      -15.1462202      -11.6595697    
 Ni   11.0479097      -10.0974798      -2.91489005    
 Ni   11.0479097      -12.6218500      -7.28723001    
 Ni   13.0579996       0.00000000       0.00000000    
 Ni   13.0579996      -17.6705894      -4.37234020    
 Ni   13.0579996      -20.1949596      -8.74468040    
 Ni   13.0579996      -5.04873991       0.00000000    
 Ni   13.0579996      -7.57311010      -4.37234020    
 Ni   13.0579996      -10.0974798      -8.74468040    
 Ni   13.0579996      -10.0974798       0.00000000    
 Ni   13.0579996      -12.6218500      -4.37234020    
 Ni   13.0579996      -15.1462202      -8.74468040    
 Ni   15.0543699      -2.52436996      -1.45745003    
 Ni   15.0543699      -5.04873991      -5.82978010    
 Ni   15.0543699      -7.57311010      -10.2021198    
 Ni   15.0543699      -7.57311010      -1.45745003    
 Ni   15.0543699      -10.0974798      -5.82978010    
 Ni   15.0543699      -12.6218500      -10.2021198    
 Ni   15.0543699      -12.6218500      -1.45745003    
 Ni   15.0543699      -15.1462202      -5.82978010    
 Ni   15.0543699      -17.6705894      -10.2021198    
 Ni   3.02601004      -6.31092978      -3.64361000    
 Ni   3.02601004      -8.83530045      -8.01595020    
 Ni   3.02601004      -11.3596697      -12.3882904    
 Ni   3.02601004      -11.3596697      -3.64361000    
 Ni   3.02601004      -13.8840399      -8.01595020    
 Ni   3.02601004      -16.4084091      -12.3882904    
 Ni   3.02601004      -16.4084091      -3.64361000    
 Ni   3.02601004      -18.9327793      -8.01595020    
 Ni   3.02601004      -21.4571495      -12.3882904    
 Ni   5.02237988      -8.83530045      -5.10105991    
 Ni   5.02237988      -11.3596697      -9.47340012    
 Ni   5.02237988      -6.31092978     -0.728720009    
 Ni   5.02237988      -13.8840399      -5.10105991    
 Ni   5.02237988      -16.4084091      -9.47340012    
 Ni   5.02237988      -11.3596697     -0.728720009    
 Ni   5.02237988      -3.78656006      -5.10105991    
 Ni   5.02237988      -6.31092978      -9.47340012    
 Ni   5.02237988      -1.26218998     -0.728720009    
 Ni   7.03247023      -11.3596697      -6.55850983    
 Ni   7.03247023      -13.8840399      -10.9308395    
 Ni   7.03247023      -8.83530045      -2.18617010    
 Ni   7.03247023      -16.4084091      -6.55850983    
 Ni   7.03247023      -18.9327793      -10.9308395    
 Ni   7.03247023      -13.8840399      -2.18617010    
 Ni   7.03247023      -6.31092978      -6.55850983    
 Ni   7.03247023      -8.83530045      -10.9308395    
 Ni   7.03247023      -3.78656006      -2.18617010    
 Ni   9.04018974      -13.8840399      -8.01595020    
 Ni   9.04018974      -16.4084091      -12.3882904    
 Ni   9.04018974      -11.3596697      -3.64361000    
 Ni   9.04018974      -18.9327793      -8.01595020    
 Ni   9.04018974      -21.4571495      -12.3882904    
 Ni   9.04018974      -16.4084091      -3.64361000    
 Ni   9.04018974      -8.83530045      -8.01595020    
 Ni   9.04018974      -11.3596697      -12.3882904    
 Ni   9.04018974      -6.31092978      -3.64361000    
 Ni   11.0479097      -16.4084091      -9.47340012    
 Ni   11.0479097      -11.3596697     -0.728720009    
 Ni   11.0479097      -13.8840399      -5.10105991    
 Ni   11.0479097      -6.31092978      -9.47340012    
 Ni   11.0479097      -1.26218998     -0.728720009    
 Ni   11.0479097      -3.78656006      -5.10105991    
 Ni   11.0479097      -11.3596697      -9.47340012    
 Ni   11.0479097      -6.31092978     -0.728720009    
 Ni   11.0479097      -8.83530045      -5.10105991    
 Ni   13.0579996      -18.9327793      -10.9308395    
 Ni   13.0579996      -13.8840399      -2.18617010    
 Ni   13.0579996      -16.4084091      -6.55850983    
 Ni   13.0579996      -8.83530045      -10.9308395    
 Ni   13.0579996      -3.78656006      -2.18617010    
 Ni   13.0579996      -6.31092978      -6.55850983    
 Ni   13.0579996      -13.8840399      -10.9308395    
 Ni   13.0579996      -8.83530045      -2.18617010    
 Ni   13.0579996      -11.3596697      -6.55850983    
 Ni   15.0543699      -21.4571495      -12.3882904    
 Ni   15.0543699      -16.4084091      -3.64361000    
 Ni   15.0543699      -18.9327793      -8.01595020    
 Ni   15.0543699      -11.3596697      -12.3882904    
 Ni   15.0543699      -6.31092978      -3.64361000    
 Ni   15.0543699      -8.83530045      -8.01595020    
 Ni   15.0543699      -16.4084091      -12.3882904    
 Ni   15.0543699      -11.3596697      -3.64361000    
 Ni   15.0543699      -13.8840399      -8.01595020    
 Ni   3.02601004      -7.57311010      -5.82978010    
 Ni   3.02601004      -10.0974798      -10.2021198    
 Ni   3.02601004      -5.04873991      -1.45745003    
 Ni   3.02601004      -12.6218500      -5.82978010    
 Ni   3.02601004      -15.1462202      -10.2021198    
 Ni   3.02601004      -10.0974798      -1.45745003    
 Ni   3.02601004      -17.6705894      -5.82978010    
 Ni   3.02601004      -20.1949596      -10.2021198    
 Ni   3.02601004      -15.1462202      -1.45745003    
 Ni   5.02237988      -10.0974798      -7.28723001    
 Ni   5.02237988      -12.6218500      -11.6595697    
 Ni   5.02237988      -7.57311010      -2.91489005    
 Ni   5.02237988      -15.1462202      -7.28723001    
 Ni   5.02237988      -17.6705894      -11.6595697    
 Ni   5.02237988      -12.6218500      -2.91489005    
 Ni   5.02237988      -5.04873991      -7.28723001    
 Ni   5.02237988      -7.57311010      -11.6595697    
 Ni   5.02237988      -2.52436996      -2.91489005    
 Ni   7.03247023      -12.6218500      -8.74468040    
 Ni   7.03247023      -7.57311010       0.00000000    
 Ni   7.03247023      -10.0974798      -4.37234020    
 Ni   7.03247023      -17.6705894      -8.74468040    
 Ni   7.03247023      -12.6218500       0.00000000    
 Ni   7.03247023      -15.1462202      -4.37234020    
 Ni   7.03247023      -7.57311010      -8.74468040    
 Ni   7.03247023      -2.52436996       0.00000000    
 Ni   7.03247023      -5.04873991      -4.37234020    
 Ni   9.04018974      -15.1462202      -10.2021198    
 Ni   9.04018974      -10.0974798      -1.45745003    
 Ni   9.04018974      -12.6218500      -5.82978010    
 Ni   9.04018974      -20.1949596      -10.2021198    
 Ni   9.04018974      -15.1462202      -1.45745003    
 Ni   9.04018974      -17.6705894      -5.82978010    
 Ni   9.04018974      -10.0974798      -10.2021198    
 Ni   9.04018974      -5.04873991      -1.45745003    
 Ni   9.04018974      -7.57311010      -5.82978010    
 Ni   11.0479097      -17.6705894      -11.6595697    
 Ni   11.0479097      -12.6218500      -2.91489005    
 Ni   11.0479097      -15.1462202      -7.28723001    
 Ni   11.0479097      -7.57311010      -11.6595697    
 Ni   11.0479097      -2.52436996      -2.91489005    
 Ni   11.0479097      -5.04873991      -7.28723001    
 Ni   11.0479097      -12.6218500      -11.6595697    
 Ni   11.0479097      -7.57311010      -2.91489005    
 Ni   11.0479097      -10.0974798      -7.28723001    
 Ni   13.0579996      -12.6218500       0.00000000    
 Ni   13.0579996      -15.1462202      -4.37234020    
 Ni   13.0579996      -17.6705894      -8.74468040    
 Ni   13.0579996      -2.52436996       0.00000000    
 Ni   13.0579996      -5.04873991      -4.37234020    
 Ni   13.0579996      -7.57311010      -8.74468040    
 Ni   13.0579996      -7.57311010       0.00000000    
 Ni   13.0579996      -10.0974798      -4.37234020    
 Ni   13.0579996      -12.6218500      -8.74468040    
 Ni   15.0543699      -15.1462202      -1.45745003    
 Ni   15.0543699      -17.6705894      -5.82978010    
 Ni   15.0543699      -20.1949596      -10.2021198    
 Ni   15.0543699      -5.04873991      -1.45745003    
 Ni   15.0543699      -7.57311010      -5.82978010    
 Ni   15.0543699      -10.0974798      -10.2021198    
 Ni   15.0543699      -10.0974798      -1.45745003    
 Ni   15.0543699      -12.6218500      -5.82978010    
 Ni   15.0543699      -15.1462202      -10.2021198    
 Ni   3.02601004      -8.83530045      -3.64361000    
 Ni   3.02601004      -11.3596697      -8.01595020    
 Ni   3.02601004      -13.8840399      -12.3882904    
 Ni   3.02601004      -13.8840399      -3.64361000    
 Ni   3.02601004      -16.4084091      -8.01595020    
 Ni   3.02601004      -18.9327793      -12.3882904    
 Ni   3.02601004      -3.78656006      -3.64361000    
 Ni   3.02601004      -6.31092978      -8.01595020    
 Ni   3.02601004      -8.83530045      -12.3882904    
 Ni   5.02237988      -11.3596697      -5.10105991    
 Ni   5.02237988      -13.8840399      -9.47340012    
 Ni   5.02237988      -8.83530045     -0.728720009    
 Ni   5.02237988      -16.4084091      -5.10105991    
 Ni   5.02237988      -18.9327793      -9.47340012    
 Ni   5.02237988      -13.8840399     -0.728720009    
 Ni   5.02237988      -6.31092978      -5.10105991    
 Ni   5.02237988      -8.83530045      -9.47340012    
 Ni   5.02237988      -3.78656006     -0.728720009    
 Ni   7.03247023      -13.8840399      -6.55850983    
 Ni   7.03247023      -16.4084091      -10.9308395    
 Ni   7.03247023      -11.3596697      -2.18617010    
 Ni   7.03247023      -3.78656006      -6.55850983    
 Ni   7.03247023      -6.31092978      -10.9308395    
 Ni   7.03247023      -1.26218998      -2.18617010    
 Ni   7.03247023      -8.83530045      -6.55850983    
 Ni   7.03247023      -11.3596697      -10.9308395    
 Ni   7.03247023      -6.31092978      -2.18617010    
 Ni   9.04018974      -16.4084091      -8.01595020    
 Ni   9.04018974      -18.9327793      -12.3882904    
 Ni   9.04018974      -13.8840399      -3.64361000    
 Ni   9.04018974      -6.31092978      -8.01595020    
 Ni   9.04018974      -8.83530045      -12.3882904    
 Ni   9.04018974      -3.78656006      -3.64361000    
 Ni   9.04018974      -11.3596697      -8.01595020    
 Ni   9.04018974      -13.8840399      -12.3882904    
 Ni   9.04018974      -8.83530045      -3.64361000    
 Ni   11.0479097      -18.9327793      -9.47340012    
 Ni   11.0479097      -13.8840399     -0.728720009    
 Ni   11.0479097      -16.4084091      -5.10105991    
 Ni   11.0479097      -8.83530045      -9.47340012    
 Ni   11.0479097      -3.78656006     -0.728720009    
 Ni   11.0479097      -6.31092978      -5.10105991    
 Ni   11.0479097      -13.8840399      -9.47340012    
 Ni   11.0479097      -8.83530045     -0.728720009    
 Ni   11.0479097      -11.3596697      -5.10105991    
 Ni   13.0579996      -6.31092978      -10.9308395    
 Ni   13.0579996      -1.26218998      -2.18617010    
 Ni   13.0579996      -3.78656006      -6.55850983    
 Ni   13.0579996      -11.3596697      -10.9308395    
 Ni   13.0579996      -6.31092978      -2.18617010    
 Ni   13.0579996      -8.83530045      -6.55850983    
 Ni   13.0579996      -16.4084091      -10.9308395    
 Ni   13.0579996      -11.3596697      -2.18617010    
 Ni   13.0579996      -13.8840399      -6.55850983    
 Ni   15.0543699      -8.83530045      -12.3882904    
 Ni   15.0543699      -3.78656006      -3.64361000    
 Ni   15.0543699      -6.31092978      -8.01595020    
 Ni   15.0543699      -13.8840399      -12.3882904    
 Ni   15.0543699      -8.83530045      -3.64361000    
 Ni   15.0543699      -11.3596697      -8.01595020    
 Ni   15.0543699      -18.9327793      -12.3882904    
 Ni   15.0543699      -13.8840399      -3.64361000    
 Ni   15.0543699      -16.4084091      -8.01595020    
 O    17.5499992      -11.3599997      -5.09999990    
 O    17.5499992      -11.3599997      -6.38000011    
