           9
 Energy:   4.6732500000000003E-002 en   4.6732500000000003E-002 edisp  -0.0000000000000000     
 X   0.00000000       0.00000000       0.00000000    
 X   14.5000000       0.00000000       0.00000000    
 X   0.00000000       14.5000000       0.00000000    
 X   0.00000000       0.00000000       14.5000000    
 X   14.5000000       14.5000000       0.00000000    
 X   14.5000000       0.00000000       14.5000000    
 X   0.00000000       14.5000000       14.5000000    
 X   14.5000000       14.5000000       14.5000000    
 O    0.00000000       0.00000000       0.00000000    
