          12
 Energy:  -16.894277499999998      en  -16.858587499999999      edisp  -3.5690000000000000E-002
 X   0.00000000       0.00000000       0.00000000    
 X   14.5000000       0.00000000       0.00000000    
 X   0.00000000       14.5000000       0.00000000    
 X   0.00000000       0.00000000       14.5000000    
 X   14.5000000       14.5000000       0.00000000    
 X   14.5000000       0.00000000       14.5000000    
 X   0.00000000       14.5000000       14.5000000    
 X   14.5000000       14.5000000       14.5000000    
 O    0.00000000       0.00000000       0.00000000    
 O    1.20700002       0.00000000       0.00000000    
 O    0.00000000       0.00000000       1.60000002    
 O    1.20700002       0.00000000       1.60000002    
