          12
 Energy:  -15.172891400000001      en  -15.137751400000001      edisp  -3.5139999999999998E-002
 X   0.00000000       0.00000000       0.00000000    
 X   14.5000000       0.00000000       0.00000000    
 X   0.00000000       14.5000000       0.00000000    
 X   0.00000000       0.00000000       14.5000000    
 X   14.5000000       14.5000000       0.00000000    
 X   14.5000000       0.00000000       14.5000000    
 X   0.00000000       14.5000000       14.5000000    
 X   14.5000000       14.5000000       14.5000000    
 O    0.00000000       0.00000000       0.00000000    
 O    1.20700002       0.00000000       0.00000000    
 O    0.00000000       0.00000000       1.50000000    
 O    1.20700002       0.00000000       1.50000000    
