         262
 Energy:  -1009.5500556000000      en  -935.72444559999997      edisp  -73.825609999999998     
 X   0.00000000       0.00000000       0.00000000    
 X   0.00000000      -17.1805725       0.00000000    
 X   0.00000000      -8.59028625      -14.8788128    
 X   30.0000000       0.00000000       0.00000000    
 X   0.00000000      -25.7708588      -14.8788128    
 X   30.0000000      -17.1805725       0.00000000    
 X   30.0000000      -8.59028625      -14.8788128    
 X   30.0000000      -25.7708588      -14.8788128    
 Al   16.1523609      -13.0837898      -9.20697975    
 Al   16.1965504      -14.3753901      -6.59281015    
 Al   16.2418003      -15.7214003      -4.12136984    
 Al   16.2267704      -17.1681099      -1.67623997    
 Al   16.2430191      -18.6100903      -4.11764002    
 Al   16.2271996      -20.0595207      -6.58453989    
 Al   16.2270603      -18.6823807      -9.08675003    
 Al   16.2179794      -17.2248898      -11.6105604    
 Al   16.2346706      -15.7827902      -14.1143103    
 Al   16.2246208      -18.6345100      -14.0682802    
 Al   16.2202606      -21.4674091      -14.0542202    
 Al   16.2311802      -22.8941898      -11.5883398    
 Al   16.2294407      -21.4817200      -9.09473038    
 Al   13.8817701      -20.0552902      -9.93173027    
 Al   13.8831301      -18.6211491      -12.4104996    
 Al   11.6266899      -20.0442295      -13.2263403    
 Al   11.6199398      -21.4783802      -10.7424898    
 Al   9.34305954      -22.9013691      -11.5801697    
 Al   9.34541035      -21.4775505      -14.0493402    
 Al   9.34735966      -24.3409901      -14.0552902    
 Al   11.6242199      -22.9063091      -13.2292204    
 Al   13.8847303      -21.4685898      -12.4073296    
 Al   16.2083092      -20.0587196      -11.5923100    
 Al   16.2393608      -17.1932907      -6.58541012    
 Al   13.8981800      -15.7715197      -7.45197010    
 Al   13.9073801      -17.1832695      -4.95053005    
 Al   11.6304903      -18.6096401      -5.77461004    
 Al   11.6240902      -17.1790295      -8.25959969    
 Al   9.34549046      -18.6183491      -9.08757019    
 Al   9.32742023      -17.1934395      -11.5909300    
 Al   7.06761980      -18.6223106      -12.3972397    
 Al   7.07817984      -20.0479908      -9.92391968    
 Al   4.80700016      -21.4807701      -10.7447100    
 Al   4.80563021      -20.0438900      -13.2296305    
 Al   2.47706008      -21.4796696      -14.0541296    
 Al   2.48441005      -22.9159794      -11.5698299    
 Al   2.49375010      -24.3385296      -14.0552197    
 Al   4.81088018      -22.9071407      -13.2208796    
 Al   7.06632996      -21.4721203      -12.3917198    
 Al   9.34545040      -20.0492496      -11.5763798    
 Al   11.6162701      -18.6294594      -10.7498903    
 Al   13.8711901      -17.2073097      -9.93363953    
 Al   11.5987301      -15.7721395      -10.7648497    
 Al   13.8833399      -15.7731104      -12.4261303    
 Al   13.8637695      -12.9158401      -12.4541597    
 Al   16.1520100      -11.4672203      -11.7873697    
 Al   16.2080898      -9.97045040      -14.1307201    
 Al   16.2142792      -12.9183998      -14.1639996    
 Al   16.1967697      -14.3148603      -11.5983896    
 Al   13.8809004      -14.3303604      -9.93476009    
 Al   16.2110901      -15.8205700      -9.11557007    
 Al   9.34743023      -18.6107807      -14.0560799    
 Al   9.34463978      -15.7507296      -14.0593004    
 Al   11.6119804      -14.3200302      -13.2428398    
 Al   11.5806503      -12.9174805      -10.7682600    
 Al   11.6069899      -9.98511982      -10.7619104    
 Al   11.6231203      -8.58724976      -13.2329903    
 Al   13.8986702      -24.3284206      -12.4055595    
 Al   13.9421501      -8.61828041      -9.90758038    
 Al   16.2477608      -9.87755013      -9.19573021    
 Al   16.2466698      -7.16440010      -9.10146046    
 Al   16.6422405      -8.77960014      -6.61087990    
 Al   16.3038406      -10.0857801      -4.19155979    
 Al   16.2191601      -11.4557199      -1.64102995    
 Al   13.8985701      -12.8671503      -2.49801993    
 Al   13.9038801      -14.3093901      -9.85999964E-03
 Al   11.6260099      -15.7409201     -0.827419996    
 Al   11.6344604      -14.3151398      -3.30645990    
 Al   9.34687042      -15.7510796      -4.12778997    
 Al   9.35231018      -14.3116798      -6.60726023    
 Al   7.07293987      -15.7465801      -7.43837023    
 Al   7.07506990      -14.3109703      -9.91378021    
 Al   4.81036997      -15.7471199      -10.7416801    
 Al   4.80740023      -14.3124399      -13.2246199    
 Al   7.07121992      -12.8879805      -12.3972902    
 Al   9.34243011      -11.4505701      -11.5738602    
 Al   9.34986973      -10.0179501      -14.0536203    
 Al   9.34770012      -12.8837996      -14.0629101    
 Al   11.6214705      -11.4541798      -13.2514000    
 Al   13.8764400      -9.99446011      -12.4481401    
 Al   16.2324409      -8.62121010      -11.5549097    
 Al   9.34831047      -21.4776707      -9.09006023    
 Al   9.35408020      -20.0451107      -6.61310005    
 Al   9.35212994      -18.6089401      -4.12754011    
 Al   9.35461044      -17.1748600      -1.65611994    
 Al   7.07610989      -15.7497702      -2.48209000    
 Al   7.07868004      -12.8799896      -2.47569990    
 Al   7.06886005      -11.4578304      -4.96339989    
 Al   4.80604982      -12.8899298      -5.79195976    
 Al   4.81170988      -11.4602299      -8.27425003    
 Al   2.47245002      -12.8800402      -9.09681988    
 Al   2.47132993      -14.3181105      -6.61969995    
 Al   2.47703004      -15.7482700      -4.13395977    
 Al   4.80411005      -14.3207798      -3.30521989    
 Al   4.80199003      -12.8854504     -0.825619996    
 Al   4.81212997      -15.7531099     -0.831330001    
 Al   7.07459021      -22.9007301      -14.8766603    
 Al   9.35007000      -14.3162699      -1.65244997    
 Al   9.36413002      -11.4553204      -1.65928996    
 Al   11.6179104      -10.0231895     -0.834720016    
 Al   13.8936501      -8.60583019      -1.51399998E-02
 Al   13.9057598      -7.16666985      -2.49858999    
 Al   13.9131899      -5.73774004      -4.95765018    
 Al   13.9098902      -4.30157995      -7.43665981    
 Al   11.6369104      -5.74378014      -8.25378036    
 Al   11.6285400      -7.15588999      -5.77245998    
 Al   9.34887028      -8.59829044      -6.61528015    
 Al   9.35818958      -7.16858006      -9.08693027    
 Al   7.06665993      -8.59486008      -9.91267967    
 Al   7.07333994      -7.15464020      -12.3943501    
 Al   4.80622005      -8.59265995      -13.2250700    
 Al   4.80492020      -10.0272999      -10.7474699    
 Al   2.46480989      -11.4558802      -11.5612402    
 Al   2.49035001      -10.0204296      -14.0470400    
 Al   2.48722005      -12.8846197      -14.0491104    
 Al   2.49738002      -15.7516003      -14.0500698    
 Al   2.49440002      -17.1680698      -11.5765104    
 Al   2.48926997      -18.6104908      -9.08362007    
 Al   4.80281019      -17.1811695      -8.26823044    
 Al   7.07368994      -18.6146202      -7.43826008    
 Al   4.80959988      -18.6131897      -5.77960014    
 Al   7.07707024      -17.1867599      -4.95614004    
 Al   4.80752993      -15.7497196      -5.78648996    
 Al   7.07233000      -14.3138599      -4.95797014    
 Al   9.35122967      -12.8869696      -4.13098001    
 Al   11.6553097      -11.4481096      -3.33209991    
 Al   9.35346031      -10.0217695      -4.13309002    
 Al   11.6475601      -10.0354404      -5.78590012    
 Al   14.0192604      -11.4351597      -5.07622004    
 Al   13.9562502      -9.99870968      -7.42970991    
 Al   11.5827198      -11.4420500      -8.25098038    
 Al   9.35807037      -12.8853197      -9.08928013    
 Al   9.35507011      -10.0185299      -9.09405041    
 Al   7.07272005      -10.0260601      -7.44453001    
 Al   7.07066011      -7.15212011      -7.43694019    
 Al   7.07356977      -4.29573011      -7.43524981    
 Al   7.08037996      -5.72522020      -4.95732021    
 Al   4.81108999      -7.14932013      -5.78672981    
 Al   4.80214024      -8.58847046      -3.29946995    
 Al   4.80398989      -10.0270004     -0.829949975    
 Al   7.07930994      -8.59996033      -7.00000019E-05
 Al   7.07774019      -7.16174984      -2.48423004    
 Al   9.35363960      -7.15677023      -4.12947989    
 Al   9.34943008      -4.29670000      -4.12868023    
 Al   11.6298304      -2.86056995      -3.30486012    
 Al   13.8954096      -1.42911005      -2.48551011    
 Al   13.8701601      -2.86238003      -3.46900001E-02
 Al   11.6155100      -4.29687977     -0.843980014    
 Al   9.34879017      -5.72748995      -1.65922999    
 Al   11.6210604      -7.16113997     -0.833790004    
 Al   11.6306696      -8.58222008      -3.31210995    
 Al   13.8837900      -10.0247297      -2.49397993    
 Al   16.2265701      -8.62504005      -1.69149005    
 Al   16.2309208      -5.73251009      -1.70436001    
 Al   16.2422199      -4.29900980      -4.12608004    
 Al   16.2539692      -7.20547009      -4.16177988    
 Al   16.2488194      -5.76633978      -6.60858011    
 Al   13.9261503      -7.15629005      -7.43346977    
 Al   13.9335003      -8.59928036      -4.98345995    
 Al   7.06863022      -12.8871403      -7.44343996    
 Al   9.34490013      -11.4573202      -6.60793018    
 Al   11.6241598      -12.8834696     -0.835340023    
 Al   13.8834496      -11.4489498       1.34800002E-02
 Al   13.9065800      -18.6183796      -7.43451023    
 Al   11.6302099      -20.0504398      -8.25249958    
 Al   2.48145008      -14.3034096      -11.5639601    
 Al   4.80530024      -12.8805904      -10.7472801    
 Al   7.07915020      -11.4563999      -9.91125965    
 Al   7.06939983      -10.0240297      -12.3999395    
 Al   9.34284019      -8.59436989      -11.5710802    
 Al   11.6361799      -7.16796017      -10.7366896    
 Al   13.8871698      -22.8907509      -9.92992973    
 Al   2.47289991      -15.7416096      -9.08516979    
 Al   4.80510998      -14.3163795      -8.27003956    
 Al   4.80770016      -11.4526701      -13.2264605    
 Al   2.48410010      -17.1790791      -6.61044979    
 Al   2.48391008      -20.0436096      -6.61156988    
 Al   2.48791003      -21.4750404      -9.08864021    
 Al   4.81500006      -20.0455799      -8.26307964    
 Al   4.81278992      -18.6145992      -10.7491302    
 Al   7.08101988      -17.1838398      -9.91413021    
 Al   9.34167004      -15.7461300      -9.08716011    
 Al   11.6282997      -14.3191299      -8.26681042    
 Al   13.8247404      -12.9146996      -7.45561981    
 Al   11.6374798      -12.8679600      -5.76035976    
 Al   11.6336098      -15.7477999      -5.78003979    
 Al   13.9081497      -14.3028803      -4.95093012    
 Al   16.2250900      -12.8332300      -4.20033979    
 Al   16.2358608      -14.2890596      -1.68862998    
 Al   13.9105797      -15.7459497      -2.48667002    
 Al   11.6316700      -17.1709595      -3.30638003    
 Al   2.46747994      -18.6119404      -4.13092995    
 Al   2.48113990      -17.1821308      -1.65450001    
 Al   4.81087017      -17.1833706      -3.30677009    
 Al   7.07486010      -15.7521896      -12.3996801    
 Al   9.33847046      -14.3102198      -11.5768604    
 Al   2.48006010      -20.0556507      -11.5746899    
 Al   2.48681998      -18.6116695      -14.0587301    
 Al   4.81714010      -17.1836700      -13.2249498    
 Al   2.47633004      -14.3174601      -1.65290999    
 Al   2.47322011      -11.4600296      -1.65497005    
 Al   2.47845006      -10.0164099      -4.13821983    
 Al   2.48404002      -8.58858967      -6.61862993    
 Al   2.47860003      -7.16414022      -9.09070015    
 Al   4.80296993      -5.72793007      -8.27132988    
 Al   4.80698013      -7.16231012      -10.7483797    
 Al   7.08121014      -5.72177982      -9.91187954    
 Al   2.47743011      -12.8894501      -4.13838005    
 Al   4.80332994      -11.4542999      -3.30083990    
 Al   7.07977009      -10.0227804      -2.47147012    
 Al   9.35002995      -8.58973026      -1.65460002    
 Al   4.81620979      -10.0235100      -5.79237986    
 Al   7.07575989      -8.58275032      -4.95031977    
 Al   2.48916006      -11.4589300      -6.63270998    
 Al   2.47579002      -10.0320902      -9.09113979    
 Al   4.80889988      -8.59130955      -8.27120018    
 Al   2.48110008      -8.59860992      -11.5670004    
 Al   7.07719994      -11.4511299      -2.86999997E-03
 Al   9.34539032      -17.1802197      -6.60859013    
 Al   9.34969044      -5.72855997      -6.61139011    
 Al   11.6350098      -4.29817009      -5.77937984    
 Al   13.9120703      -2.86221004      -4.95122004    
 Al   13.8938999      -4.29624987      -2.49158001    
 Al   16.2100201      -2.85186005      -1.67464006    
 Al   11.6174402      -17.1898899      -13.2447596    
 Al   11.6641397      -8.61011028      -8.26109982    
 Al   11.6294098      -5.72925997      -3.30592990    
 Al   13.7454205      -11.4631701      -10.0243301    
 Al   13.8915100      -5.73415995      -2.57799998E-02
 Al   17.1666908      -11.7059298      -6.57792997    
 Al   2.48183990      -5.72345018      -6.61150980    
 Al   2.46795988      -4.29345989      -4.13212013    
 Al   4.80027008      -2.86149001      -3.30660009    
 Al   7.07822990      -1.43545997      -2.47836995    
 Al   7.08264017      -2.86268997      -1.41000003E-03
 Al   4.81442022      -4.29398012     -0.829949975    
 Al   2.47927999      -5.72695017      -1.65208006    
 Al   4.81713009      -7.15503979     -0.832669973    
 Al   7.07889986      -5.72784996       5.39999979E-04
 Al   7.07651997      -4.29284000      -2.48178005    
 Al   9.35007954      -2.86120009      -1.65619004    
 Al   11.6187201      -1.42287004     -0.838460028    
 Al   13.8924103      -17.1679897      -1.77100003E-02
 Al   2.47670007      -7.15913010      -4.12908983    
 Al   4.81121016      -5.72288990      -3.30683994    
 Al   4.80849981      -4.29345989      -5.77962017    
 Al   7.07751989      -2.86508012      -4.95656013    
 Al   2.47761011      -8.58880997      -1.65114999    
 Al   2.46642995      -2.86075997      -1.65742004    
 Al   4.81775999      -1.43804002     -0.832050025    
 Al   7.07562017       2.27999990E-03   2.19999999E-03
 Al   16.2403603      -24.3153305      -14.0754604    
 O    17.0185108      -11.6174002      -8.50314999    
 O    17.6533203      -9.95156956      -5.97678995    
