         261
 Energy:  -1001.0391913999999      en  -927.30607139999995      edisp  -73.733120000000000     
 X   0.00000000       0.00000000       0.00000000    
 X   0.00000000      -17.1805725       0.00000000    
 X   0.00000000      -8.59028625      -14.8788128    
 X   30.0000000       0.00000000       0.00000000    
 X   0.00000000      -25.7708588      -14.8788128    
 X   30.0000000      -17.1805725       0.00000000    
 X   30.0000000      -8.59028625      -14.8788128    
 X   30.0000000      -25.7708588      -14.8788128    
 Al   2.48095012      -11.4537201      -6.61302996    
 Al   2.46930003      -14.3175697      -11.5732498    
 Al   2.47180009      -8.58901978      -1.65177000    
 Al   2.47950006      -17.1839809      -6.61384010    
 Al   2.47706008      -20.0440006      -11.5795403    
 Al   2.47180009      -14.3184099      -1.65177000    
 Al   2.47950006      -5.72345018      -6.61384010    
 Al   2.46930003      -8.58985996      -11.5732498    
 Al   2.47708988      -2.86343002      -1.65617001    
 Al   4.79260015      -14.3199501      -8.26558971    
 Al   4.79520988      -17.1865692      -13.2221498    
 Al   4.78852987      -11.4537201      -3.29481006    
 Al   4.79448986      -20.0440006      -8.26603985    
 Al   4.79520988      -22.9014301      -13.2221498    
 Al   4.80022001      -17.1840096      -3.30696988    
 Al   4.79260015      -8.58747959      -8.26558971    
 Al   4.79582024      -11.4537201      -13.2309799    
 Al   4.80022001      -5.72343016      -3.30696988    
 Al   7.06081009      -17.1844902      -9.92278957    
 Al   7.06173992      -11.4537201      -1.27999997E-03
 Al   7.05606985      -14.3140097      -4.96014977    
 Al   7.06081009      -5.72293997      -9.92278957    
 Al   7.06141996       3.13000008E-03   2.88999989E-03
 Al   7.07072020      -2.86343002      -4.96025991    
 Al   7.05227995      -11.4537201      -9.92162037    
 Al   7.06141996      -5.72999001       2.88999989E-03
 Al   7.05606985      -8.59342003      -4.96014977    
 Al   9.35184002      -20.0440006      -11.5726995    
 Al   9.35365009      -14.3173103      -1.65179002    
 Al   9.34912968      -17.1839504      -6.61538982    
 Al   9.35435009      -8.59002972      -11.5740404    
 Al   9.34916019      -2.86343002      -1.65445995    
 Al   9.34912968      -5.72348022      -6.61538982    
 Al   9.35435009      -14.3174000      -11.5740404    
 Al   9.35365009      -8.59012032      -1.65179002    
 Al   9.31587982      -11.4537201      -6.58377981    
 Al   11.6484804      -22.9082108      -13.2222795    
 Al   11.6429796      -17.1866093      -3.30416012    
 Al   11.6456099      -20.0440006      -8.26535988    
 Al   11.6491203      -11.4537201      -13.2497396    
 Al   11.6429796      -5.72081995      -3.30416012    
 Al   11.6483402      -8.57131004      -8.25078964    
 Al   11.6484804      -17.1797905      -13.2222795    
 Al   11.6538897      -11.4537201      -3.31223989    
 Al   11.6483402      -14.3361197      -8.25078964    
 Al   13.9179497      -1.93999999E-03  -1.20799998E-02
 Al   13.9024296      -2.86343002      -4.95451021    
 Al   13.9155903      -5.72643995      -9.91594028    
 Al   13.9179497      -5.72491980      -1.20799998E-02
 Al   13.9345903      -8.56198978      -4.93359995    
 Al   13.9876404      -11.4537201      -10.0478897    
 Al   13.9107399      -11.4537201       5.69999975E-04
 Al   13.9345903      -14.3454399      -4.93359995    
 Al   13.9155903      -17.1809902      -9.91594028    
 Al   16.2270107      -2.86343002      -1.66663003    
 Al   16.2561703      -5.70593977      -6.60053015    
 Al   16.2606697      -8.58240986      -11.5907698    
 Al   16.2345009      -8.59247971      -1.65069997    
 Al   16.3073807      -11.4537201      -6.59554005    
 Al   16.2606697      -14.3250198      -11.5907698    
 Al   16.2345009      -14.3149500      -1.65069997    
 Al   16.2561703      -17.2014904      -6.60053015    
 Al   16.2310505      -20.0440006      -11.5741596    
 Al   2.47950006      -7.15777016      -4.12952995    
 Al   2.48095012      -10.0221901      -9.09249973    
 Al   2.47950006      -12.8880301      -14.0546398    
 Al   2.46930003      -12.8859396      -4.13220978    
 Al   2.46930003      -15.7497997      -9.09255981    
 Al   2.47706008      -18.6184597      -14.0486498    
 Al   2.47708988      -18.6148605      -4.13151979    
 Al   2.47180009      -21.4738503      -9.09222984    
 Al   2.47180009      -24.3385391      -14.0540199    
 Al   4.79260015      -10.0202398      -5.78397989    
 Al   4.79260015      -12.8864698      -10.7484503    
 Al   4.79448986      -7.15859985     -0.826590002    
 Al   4.79582024      -15.7535105      -5.78352022    
 Al   4.79520988      -18.6122894      -10.7527304    
 Al   4.79520988      -12.8794298     -0.823140025    
 Al   4.80022001      -4.29392004      -5.78294992    
 Al   4.78852987      -7.14854002      -10.7516003    
 Al   4.80022001      -1.43392003     -0.829289973    
 Al   7.05227995      -12.8875198      -7.43820000    
 Al   7.06081009      -15.7539196      -12.4006100    
 Al   7.06081009      -10.0231504      -2.47462010    
 Al   7.06141996      -18.6113491      -7.44357014    
 Al   7.06173992      -21.4768295      -12.3983698    
 Al   7.06141996      -15.7447901      -2.47852993    
 Al   7.05606985      -7.16062021      -7.44185019    
 Al   7.05606985      -10.0209103      -12.3960199    
 Al   7.07072020      -4.29571009      -2.47947001    
 Al   9.35435009      -15.7503996      -9.09202003    
 Al   9.35184002      -18.6125393      -14.0520697    
 Al   9.35435009      -12.8867102      -4.13195992    
 Al   9.35365009      -21.4744205      -9.09317017    
 Al   9.35365009      -24.3380108      -14.0530596    
 Al   9.34916019      -18.6133709      -4.13238001    
 Al   9.31587982      -9.99685955      -9.10711956    
 Al   9.34912968      -12.8893499      -14.0538502    
 Al   9.34912968      -7.15912008      -4.12878990    
 Al   11.6484804      -18.6090202      -10.7467899    
 Al   11.6484804      -12.8829403     -0.828939974    
 Al   11.6491203      -15.7697496      -5.77413988    
 Al   11.6538897      -7.16362000      -10.7428904    
 Al   11.6429796      -1.43279004     -0.832949996    
 Al   11.6429796      -4.29018021      -5.78210020    
 Al   11.6483402      -12.8817396      -10.7698498    
 Al   11.6456099      -7.15801001     -0.826919973    
 Al   11.6483402      -9.99932957      -5.77737999    
 Al   13.9107399      -21.4752293      -12.3992901    
 Al   13.9179497      -15.7602901      -2.47544003    
 Al   13.9179497      -18.6217804      -7.43169022    
 Al   13.9345903      -10.0136299      -12.4365196    
 Al   13.9024296      -4.29073000      -2.48235011    
 Al   13.9345903      -7.12190008      -7.42790985    
 Al   13.9155903      -15.7462397      -12.4010096    
 Al   13.9155903      -10.0189600      -2.48107004    
 Al   13.9876404      -12.9968796      -7.37506008    
 Al   16.2345009      -24.3358803      -14.0515604    
 Al   16.2270107      -18.6239109      -4.12628984    
 Al   16.2345009      -21.4746494      -9.09576035    
 Al   16.2561703      -12.8852501      -14.0764704    
 Al   16.2561703      -7.13747978      -4.12102985    
 Al   16.3073807      -10.0070496      -9.10124016    
 Al   16.2310505      -18.6138000      -14.0513401    
 Al   16.2606697      -12.8973904      -4.11700010    
 Al   16.2606697      -15.7686996      -9.09025002    
 Al   2.47760010      -8.59257030      -6.61412001    
 Al   2.47760010      -11.4537201      -11.5697803    
 Al   2.47473001      -5.72230005      -1.65583003    
 Al   2.47760010      -14.3148603      -6.61412001    
 Al   2.47093010      -17.1873302      -11.5763102    
 Al   2.47093010      -11.4537201      -1.64540005    
 Al   2.47473001      -20.0440006      -6.60754013    
 Al   2.47093010      -22.9006691      -11.5763102    
 Al   2.47473001      -17.1851292      -1.65583003    
 Al   4.81628990      -11.4537201      -8.26601028    
 Al   4.79444981      -14.3200903      -13.2215796    
 Al   4.79444981      -8.59525013      -3.30587006    
 Al   4.79444981      -17.1785603      -8.27056980    
 Al   4.80365992      -20.0440006      -13.2256098    
 Al   4.79444981      -14.3121796      -3.30587006    
 Al   4.79444981      -5.72886992      -8.27056980    
 Al   4.79444981      -8.58734035      -13.2215796    
 Al   4.80563021      -2.86343002      -3.30640006    
 Al   7.04890013      -14.3285103      -9.92576981    
 Al   7.06134987      -8.59414005       2.22999998E-03
 Al   7.04890013      -11.4537201      -4.94647980    
 Al   7.06134987      -20.0440006      -9.92366028    
 Al   7.06134987      -14.3132896       2.22999998E-03
 Al   7.05913019      -17.1810093      -4.95935011    
 Al   7.04890013      -8.57892036      -9.92576981    
 Al   7.05913019      -2.86343002      -5.00000024E-04
 Al   7.05913019      -5.72641993      -4.95935011    
 Al   9.36096001      -17.1802807      -11.5722399    
 Al   9.36096001      -11.4537201      -1.65354002    
 Al   9.34710026      -14.3272400      -6.60697985    
 Al   9.36096001      -22.9077206      -11.5722399    
 Al   9.34727001      -17.1784191      -1.65196002    
 Al   9.34727001      -20.0440006      -6.61529016    
 Al   9.34710026      -11.4537201      -11.5840702    
 Al   9.34727001      -5.72901011      -1.65196002    
 Al   9.34710026      -8.58018970      -6.60697985    
 Al   11.6486998      -20.0440006      -13.2256098    
 Al   11.6497698      -14.3224401      -3.30576992    
 Al   11.6497698      -17.1837692      -8.26173973    
 Al   11.6497698      -8.59239006      -13.2305202    
 Al   11.6350803      -2.86343002      -3.30640006    
 Al   11.6497698      -5.72365999      -8.26173973    
 Al   11.6497698      -14.3150396      -13.2305202    
 Al   11.6497698      -8.58498955      -3.30576992    
 Al   11.4532003      -11.4537201      -8.26601028    
 Al   13.9090300      -14.3140097       1.81000005E-03
 Al   13.9196301      -17.1987495      -4.94911003    
 Al   13.9090300      -20.0440006      -9.92282009    
 Al   13.9196301      -2.86343002      -2.09899992E-02
 Al   13.9196301      -5.70868015      -4.94911003    
 Al   13.9475002      -8.58211994      -9.92391968    
 Al   13.9090300      -8.59342003       1.81000005E-03
 Al   13.9475002      -11.4537201      -4.95017004    
 Al   13.9475002      -14.3253098      -9.92391968    
 Al   16.2293301      -17.1809292      -1.65340996    
 Al   16.2293301      -20.0440006      -6.61239004    
 Al   16.2403793      -22.9043808      -11.5741701    
 Al   16.2293301      -5.72650003      -1.65340996    
 Al   16.3132896      -8.56968975      -6.60092020    
 Al   16.3132896      -11.4537201      -11.5961905    
 Al   16.2403793      -11.4537201      -1.64968002    
 Al   16.3132896      -14.3377399      -6.60092020    
 Al   16.2403793      -17.1836300      -11.5741701    
 Al   2.46930003      -10.0214901      -4.13220978    
 Al   2.48095012      -12.8852396      -9.09249973    
 Al   2.47180009      -15.7494698      -14.0540199    
 Al   2.47950006      -15.7496595      -4.12952995    
 Al   2.47180009      -18.6141605      -9.09222984    
 Al   2.47706008      -21.4695396      -14.0486498    
 Al   2.47708988      -4.29257011      -4.13151979    
 Al   2.46930003      -7.15762997      -9.09255981    
 Al   2.47950006      -10.0193996      -14.0546398    
 Al   4.79260015      -12.8871899      -5.78397989    
 Al   4.78852987      -15.7588997      -10.7516003    
 Al   4.79520988      -10.0279999     -0.823140025    
 Al   4.80022001      -18.6135101      -5.78294992    
 Al   4.79520988      -21.4757195      -10.7527304    
 Al   4.79448986      -15.7488298     -0.826590002    
 Al   4.79582024      -7.15392017      -5.78352022    
 Al   4.79260015      -10.0209599      -10.7484503    
 Al   4.80022001      -4.29293013     -0.829289973    
 Al   7.05606985      -15.7468204      -7.44185019    
 Al   7.06173992      -18.6111794      -12.3983698    
 Al   7.06081009      -12.8842802      -2.47462010    
 Al   7.06141996      -4.29608011      -7.44357014    
 Al   7.06081009      -7.15351009      -12.4006100    
 Al   7.07072020      -1.43114996      -2.47947001    
 Al   7.05227995      -10.0199099      -7.43820000    
 Al   7.05606985      -12.8865204      -12.3960199    
 Al   7.06141996      -7.16264009      -2.47852993    
 Al   9.35365009      -18.6135902      -9.09317017    
 Al   9.35184002      -21.4754696      -14.0520697    
 Al   9.34912968      -15.7483101      -4.12878990    
 Al   9.35435009      -7.15703011      -9.09202003    
 Al   9.34912968      -10.0180798      -14.0538502    
 Al   9.34916019      -4.29406023      -4.13238001    
 Al   9.31587982      -12.9105701      -9.10711956    
 Al   9.35365009      -15.7500000      -14.0530596    
 Al   9.35435009      -10.0207195      -4.13195992    
 Al   11.6484804      -21.4789906      -10.7467899    
 Al   11.6456099      -15.7494202     -0.826919973    
 Al   11.6429796      -18.6172504      -5.78210020    
 Al   11.6483402      -10.0256901      -10.7698498    
 Al   11.6429796      -4.29406977     -0.832949996    
 Al   11.6491203      -7.13768005      -5.77413988    
 Al   11.6538897      -15.7438097      -10.7428904    
 Al   11.6484804      -10.0244904     -0.828939974    
 Al   11.6483402      -12.9081001      -5.77737999    
 Al   13.9155903      -7.16119003      -12.4010096    
 Al   13.9024296      -1.43613005      -2.48235011    
 Al   13.9179497      -4.28564978      -7.43169022    
 Al   13.9345903      -12.8938103      -12.4365196    
 Al   13.9179497      -7.14714003      -2.47544003    
 Al   13.9876404      -9.91055965      -7.37506008    
 Al   13.9107399      -18.6127796      -12.3992901    
 Al   13.9155903      -12.8884697      -2.48107004    
 Al   13.9345903      -15.7855301      -7.42790985    
 Al   16.2561703      -10.0221796      -14.0764704    
 Al   16.2270107      -4.28352022      -4.12628984    
 Al   16.2606697      -7.13874006      -9.09025002    
 Al   16.2345009      -15.7521200      -14.0515604    
 Al   16.2606697      -10.0100403      -4.11700010    
 Al   16.3073807      -12.9003897      -9.10124016    
 Al   16.2310505      -21.4741993      -14.0513401    
 Al   16.2561703      -15.7699499      -4.12102985    
 Al   16.2345009      -18.6133499      -9.09576035    
 O    13.3233004      -11.4537201      -8.26601028    
