         278
 Energy:  -2059.1221264999999      en  -1997.0014965000000      edisp  -62.120629999999998     
 X   0.00000000       0.00000000       0.00000000    
 X   14.4150839       0.00000000       0.00000000    
 X  -7.20754194       12.4838276       0.00000000    
 X   0.00000000       0.00000000       13.1162539    
 X   7.20754194       12.4838276       0.00000000    
 X   14.4150839       0.00000000       13.1162539    
 X  -7.20754194       12.4838276       13.1162539    
 X   7.20754194       12.4838276       13.1162539    
 Al  -0.00000000      -0.00000000       1.93920004    
 Al  -0.00000000       2.77418995      0.246840000    
 Al  -0.00000000       2.77418995       4.12524986    
 Al   2.40251994       1.38708997       2.43287992    
 Al   2.40251994       1.38708997       6.31127977    
 Al  -0.00000000      -0.00000000       4.61891985    
 Al  -0.00000000      -0.00000000       8.49732971    
 Al  -0.00000000       2.77418995       6.80496979    
 Al  -0.00000000       2.77418995       10.6833801    
 Al   2.40251994       1.38708997       8.99100018    
 Al   2.40251994       1.38708997       12.8694096    
 Al  -0.00000000      -0.00000000       11.1770496    
 Al  -2.40250993       4.16128016       1.93920004    
 Al  -2.40251994       6.93546009      0.246840000    
 Al  -2.40251994       6.93546009       4.12524986    
 Al   0.00000000       5.54836988       2.43287992    
 Al   0.00000000       5.54836988       6.31127977    
 Al  -2.40250993       4.16128016       4.61891985    
 Al  -2.40250993       4.16128016       8.49732971    
 Al  -2.40251994       6.93546009       6.80496979    
 Al  -2.40251994       6.93546009       10.6833801    
 Al   0.00000000       5.54836988       8.99100018    
 Al   0.00000000       5.54836988       12.8694096    
 Al  -2.40250993       4.16128016       11.1770496    
 Al  -4.80502987       8.32254982       1.93920004    
 Al  -4.80502987       11.0967398      0.246840000    
 Al  -4.80502987       11.0967398       4.12524986    
 Al  -2.40250993       9.70963955       2.43287992    
 Al  -2.40250993       9.70963955       6.31127977    
 Al  -4.80502987       8.32254982       4.61891985    
 Al  -4.80502987       8.32254982       8.49732971    
 Al  -4.80502987       11.0967398       6.80496979    
 Al  -4.80502987       11.0967398       10.6833801    
 Al  -2.40250993       9.70963955       8.99100018    
 Al  -2.40250993       9.70963955       12.8694096    
 Al  -4.80502987       8.32254982       11.1770496    
 Al   4.80502987      -0.00000000       1.93920004    
 Al   4.80502987       2.77418995      0.246840000    
 Al   4.80502987       2.77418995       4.12524986    
 Al   7.20754004       1.38708997       2.43287992    
 Al   7.20754004       1.38708997       6.31127977    
 Al   4.80502987      -0.00000000       4.61891985    
 Al   4.80502987      -0.00000000       8.49732971    
 Al   4.80502987       2.77418995       6.80496979    
 Al   4.80502987       2.77418995       10.6833801    
 Al   7.20754004       1.38708997       8.99100018    
 Al   7.20754004       1.38708997       12.8694096    
 Al   4.80502987      -0.00000000       11.1770496    
 Al   2.40250993       4.16128016       1.93920004    
 Al   2.40250993       6.93546009      0.246840000    
 Al   2.40250993       6.93546009       4.12524986    
 Al   4.80502987       5.54836988       2.43287992    
 Al   4.80502987       5.54836988       6.31127977    
 Al   2.40250993       4.16128016       4.61891985    
 Al   2.40250993       4.16128016       8.49732971    
 Al   2.40250993       6.93546009       6.80496979    
 Al   2.40250993       6.93546009       10.6833801    
 Al   4.80502987       5.54836988       8.99100018    
 Al   4.80502987       5.54836988       12.8694096    
 Al   2.40250993       4.16128016       11.1770496    
 Al   0.00000000       8.32254982       1.93920004    
 Al  -0.00000000       11.0967398      0.246840000    
 Al  -0.00000000       11.0967398       4.12524986    
 Al   2.40251994       9.70963955       2.43287992    
 Al   2.40251994       9.70963955       6.31127977    
 Al   0.00000000       8.32254982       4.61891985    
 Al   0.00000000       8.32254982       8.49732971    
 Al  -0.00000000       11.0967398       6.80496979    
 Al  -0.00000000       11.0967398       10.6833801    
 Al   2.40251994       9.70963955       8.99100018    
 Al   2.40251994       9.70963955       12.8694096    
 Al   0.00000000       8.32254982       11.1770496    
 Al   9.61005974      -0.00000000       1.93920004    
 Al   9.61005020       2.77418995      0.246840000    
 Al   9.61005020       2.77418995       4.12524986    
 Al   12.0125704       1.38708997       2.43287992    
 Al   12.0125704       1.38708997       6.31127977    
 Al   9.61005974      -0.00000000       4.61891985    
 Al   9.61005974      -0.00000000       8.49732971    
 Al   9.61005020       2.77418995       6.80496979    
 Al   9.61005020       2.77418995       10.6833801    
 Al   12.0125704       1.38708997       8.99100018    
 Al   12.0125704       1.38708997       12.8694096    
 Al   9.61005974      -0.00000000       11.1770496    
 Al   7.20754004       4.16128016       1.93920004    
 Al   7.20754004       6.93546009      0.246840000    
 Al   7.20754004       6.93546009       4.12524986    
 Al   9.61005974       5.54836988       2.43287992    
 Al   9.61005974       5.54836988       6.31127977    
 Al   7.20754004       4.16128016       4.61891985    
 Al   7.20754004       4.16128016       8.49732971    
 Al   7.20754004       6.93546009       6.80496979    
 Al   7.20754004       6.93546009       10.6833801    
 Al   9.61005974       5.54836988       8.99100018    
 Al   9.61005974       5.54836988       12.8694096    
 Al   7.20754004       4.16128016       11.1770496    
 Al   4.80502987       8.32254982       1.93920004    
 Al   4.80502987       11.0967398      0.246840000    
 Al   4.80502987       11.0967398       4.12524986    
 Al   7.20754004       9.70963955       2.43287992    
 Al   7.20754004       9.70963955       6.31127977    
 Al   4.80502987       8.32254982       4.61891985    
 Al   4.80502987       8.32254982       8.49732971    
 Al   4.80502987       11.0967398       6.80496979    
 Al   4.80502987       11.0967398       10.6833801    
 Al   7.20754004       9.70963955       8.99100018    
 Al   7.20754004       9.70963955       12.8694096    
 Al   4.80502987       8.32254982       11.1770496    
 O    1.47079003      -0.00000000       3.27905989    
 O    3.13790989      0.113349997       1.09301996    
 O  -0.735400021       1.27374005       3.27905989    
 O    1.66711998       2.88753009       3.27905989    
 O    3.13790989       2.66083002       1.09301996    
 O   0.931729972       1.38708997       1.09301996    
 O    3.87331009       1.38708997       7.65114021    
 O   0.735390007       1.50044000       5.46510983    
 O    1.66711998       2.66083002       7.65114021    
 O    1.66711998      0.113349997       7.65114021    
 O   0.735390007       4.04792976       5.46510983    
 O   -1.47079003       2.77418995       5.46510983    
 O    1.47079003       2.77418995       12.0232401    
 O   -1.66711998       2.88753009       9.83718967    
 O  -0.735400021       4.04792976       12.0232401    
 O  -0.735400021       1.50044000       12.0232401    
 O   0.735400021       1.27374005       9.83718967    
 O    3.33423996      -0.00000000       9.83718967    
 O  -0.931720018       4.16128016       3.27905989    
 O   0.735400021       4.27463007       1.09301996    
 O   -3.13790989       5.43501997       3.27905989    
 O  -0.735400021       7.04881001       3.27905989    
 O   0.735400021       6.82211018       1.09301996    
 O   -1.47079003       5.54836988       1.09301996    
 O    1.47079003       5.54836988       7.65114021    
 O   -1.66711998       5.66171980       5.46510983    
 O  -0.735390007       6.82211018       7.65114021    
 O  -0.735390007       4.27463007       7.65114021    
 O   -1.66711998       8.20919991       5.46510983    
 O   -3.87331009       6.93546009       5.46510983    
 O  -0.931729972       6.93546009       12.0232401    
 O   -4.06963015       7.04881001       9.83718967    
 O   -3.13790989       8.20919991       12.0232401    
 O   -3.13790989       5.66171980       12.0232401    
 O   -1.66711998       5.43501997       9.83718967    
 O   0.931720018       4.16128016       9.83718967    
 O   -3.33423996       8.32254982       3.27905989    
 O   -1.66711998       8.43589973       1.09301996    
 O   -5.54042006       9.59628963       3.27905989    
 O   -3.13790989       11.2100897       3.27905989    
 O   -1.66711998       10.9833803       1.09301996    
 O   -3.87330008       9.70963955       1.09301996    
 O  -0.931720018       9.70963955       7.65114021    
 O   -4.06964016       9.82299995       5.46510983    
 O   -3.13790989       10.9833803       7.65114021    
 O   -3.13790989       8.43589973       7.65114021    
 O   -4.06964016       12.3704796       5.46510983    
 O   -6.27581978       11.0967398       5.46510983    
 O   -3.33423996       11.0967398       12.0232401    
 O   -6.47214985       11.2100897       9.83718967    
 O   -5.54043007       12.3704796       12.0232401    
 O   -5.54043007       9.82299995       12.0232401    
 O   -4.06963015       9.59628963       9.83718967    
 O   -1.47079003       8.32254982       9.83718967    
 O    6.27581978      -0.00000000       3.27905989    
 O    7.94294024      0.113349997       1.09301996    
 O    4.06963015       1.27374005       3.27905989    
 O    6.47214985       2.88753009       3.27905989    
 O    7.94294024       2.66083002       1.09301996    
 O    5.73675013       1.38708997       1.09301996    
 O    8.67833042       1.38708997       7.65114021    
 O    5.54042006       1.50044000       5.46510983    
 O    6.47214985       2.66083002       7.65114021    
 O    6.47214985      0.113349997       7.65114021    
 O    5.54042006       4.04792976       5.46510983    
 O    3.33423996       2.77418995       5.46510983    
 O    6.27581978       2.77418995       12.0232401    
 O    3.13790989       2.88753009       9.83718967    
 O    4.06963015       4.04792976       12.0232401    
 O    4.06963015       1.50044000       12.0232401    
 O    5.54042006       1.27374005       9.83718967    
 O    8.13926983      -0.00000000       9.83718967    
 O    3.87330008       4.16128016       3.27905989    
 O    5.54043007       4.27463007       1.09301996    
 O    1.66711998       5.43501997       3.27905989    
 O    4.06963015       7.04881001       3.27905989    
 O    5.54043007       6.82211018       1.09301996    
 O    3.33423996       5.54836988       1.09301996    
 O    6.27581978       5.54836988       7.65114021    
 O    3.13790989       5.66171980       5.46510983    
 O    4.06964016       6.82211018       7.65114021    
 O    4.06964016       4.27463007       7.65114021    
 O    3.13790989       8.20919991       5.46510983    
 O   0.931720018       6.93546009       5.46510983    
 O    3.87330008       6.93546009       12.0232401    
 O   0.735400021       7.04881001       9.83718967    
 O    1.66711998       8.20919991       12.0232401    
 O    1.66711998       5.66171980       12.0232401    
 O    3.13790989       5.43501997       9.83718967    
 O    5.73675013       4.16128016       9.83718967    
 O    1.47079003       8.32254982       3.27905989    
 O    3.13790989       8.43589973       1.09301996    
 O  -0.735400021       9.59628963       3.27905989    
 O    1.66711998       11.2100897       3.27905989    
 O    3.13790989       10.9833803       1.09301996    
 O   0.931729972       9.70963955       1.09301996    
 O    3.87331009       9.70963955       7.65114021    
 O   0.735390007       9.82299995       5.46510983    
 O    1.66711998       10.9833803       7.65114021    
 O    1.66711998       8.43589973       7.65114021    
 O   0.735390007       12.3704796       5.46510983    
 O   -1.47079003       11.0967398       5.46510983    
 O    1.47079003       11.0967398       12.0232401    
 O   -1.66711998       11.2100897       9.83718967    
 O  -0.735400021       12.3704796       12.0232401    
 O  -0.735400021       9.82299995       12.0232401    
 O   0.735400021       9.59628963       9.83718967    
 O    3.33423996       8.32254982       9.83718967    
 O    11.0808496      -0.00000000       3.27905989    
 O    12.7479696      0.113349997       1.09301996    
 O    8.87465954       1.27374005       3.27905989    
 O    11.2771702       2.88753009       3.27905989    
 O    12.7479696       2.66083002       1.09301996    
 O    10.5417805       1.38708997       1.09301996    
 O    13.4833603       1.38708997       7.65114021    
 O    10.3454504       1.50044000       5.46510983    
 O    11.2771797       2.66083002       7.65114021    
 O    11.2771797      0.113349997       7.65114021    
 O    10.3454504       4.04792976       5.46510983    
 O    8.13926029       2.77418995       5.46510983    
 O    11.0808401       2.77418995       12.0232401    
 O    7.94294024       2.88753009       9.83718967    
 O    8.87465954       4.04792976       12.0232401    
 O    8.87465954       1.50044000       12.0232401    
 O    10.3454504       1.27374005       9.83718967    
 O    12.9442902      -0.00000000       9.83718967    
 O    8.67833042       4.16128016       3.27905989    
 O    10.3454504       4.27463007       1.09301996    
 O    6.47214985       5.43501997       3.27905989    
 O    8.87465954       7.04881001       3.27905989    
 O    10.3454504       6.82211018       1.09301996    
 O    8.13926983       5.54836988       1.09301996    
 O    11.0808496       5.54836988       7.65114021    
 O    7.94293022       5.66171980       5.46510983    
 O    8.87465954       6.82211018       7.65114021    
 O    8.87465954       4.27463007       7.65114021    
 O    7.94293022       8.20919991       5.46510983    
 O    5.73675013       6.93546009       5.46510983    
 O    8.67833042       6.93546009       12.0232401    
 O    5.54042006       7.04881001       9.83718967    
 O    6.47213984       8.20919991       12.0232401    
 O    6.47213984       5.66171980       12.0232401    
 O    7.94294024       5.43501997       9.83718967    
 O    10.5417805       4.16128016       9.83718967    
 O    6.27581978       8.32254982       3.27905989    
 O    7.94294024       8.43589973       1.09301996    
 O    4.06963015       9.59628963       3.27905989    
 O    6.47214985       11.2100897       3.27905989    
 O    7.94294024       10.9833803       1.09301996    
 O    5.73675013       9.70963955       1.09301996    
 O    8.67833042       9.70963955       7.65114021    
 O    5.54042006       9.82299995       5.46510983    
 O    6.47214985       10.9833803       7.65114021    
 O    6.47214985       8.43589973       7.65114021    
 O    5.54042006       12.3704796       5.46510983    
 O    3.33423996       11.0967398       5.46510983    
 O    6.27581978       11.0967398       12.0232401    
 O    3.13790989       11.2100897       9.83718967    
 O    4.06963015       12.3704796       12.0232401    
 O    4.06963015       9.82299995       12.0232401    
 O    5.54042006       9.59628963       9.83718967    
 O    8.13926983       8.32254982       9.83718967    
