         265
 Energy:  -1502.9712342000000      en  -1389.3320441999999      edisp  -113.63919000000000     
 X   0.00000000       0.00000000       0.00000000    
 X   14.2799997       0.00000000       0.00000000    
 X   0.00000000       14.2799997       0.00000000    
 X   0.00000000       0.00000000       14.2799997    
 X   14.2799997       14.2799997       0.00000000    
 X   14.2799997       0.00000000       14.2799997    
 X   0.00000000       14.2799997       14.2799997    
 X   14.2799997       14.2799997       14.2799997    
 Ni -0.140019998     -0.140019998     -0.140019998    
 Ni -0.140019998       1.92501998       1.92501998    
 Ni   1.92501998     -0.140019998       1.92501998    
 Ni   1.92501998       1.92501998     -0.140019998    
 Ni  -1.81300007E-02  -1.81300007E-02   3.60973001    
 Ni  -5.69000002E-03   1.79068995       5.35807991    
 Ni   1.79068995      -5.69000002E-03   5.35807991    
 Ni   1.80313003       1.80313003       3.60973001    
 Ni  -5.39999979E-04  -5.39999979E-04   7.13972998    
 Ni  -5.39999979E-04   1.78553998       8.92527008    
 Ni   1.78553998      -5.39999979E-04   8.92527008    
 Ni   1.78553998       1.78553998       7.13972998    
 Ni  -5.69000002E-03  -5.69000002E-03   10.7069197    
 Ni  -1.81300007E-02   1.80313003       12.4552698    
 Ni   1.80313003      -1.81300007E-02   12.4552698    
 Ni   1.79068995       1.79068995       10.7069197    
 Ni  -1.81300007E-02   3.60973001      -1.81300007E-02
 Ni  -5.69000002E-03   5.35807991       1.79068995    
 Ni   1.80313003       3.60973001       1.80313003    
 Ni   1.79068995       5.35807991      -5.69000002E-03
 Ni  -2.12099999E-02   3.62368989       3.62368989    
 Ni  -3.84999998E-03   5.37525988       5.37525988    
 Ni   1.78788996       3.58297992       5.36786985    
 Ni   1.78788996       5.36786985       3.58297992    
 Ni  -1.67999999E-03   3.57367992       7.14316988    
 Ni  -1.67999999E-03   5.36082983       8.92117023    
 Ni   1.78667998       3.57367992       8.92183018    
 Ni   1.78667998       5.36082983       7.14382982    
 Ni  -2.88999989E-03   3.58297992       10.6971302    
 Ni  -2.88999989E-03   5.36786985       12.4820204    
 Ni   1.80621004       3.62368989       12.4413099    
 Ni   1.78884995       5.37525988       10.6897402    
 Ni  -5.39999979E-04   7.13972998      -5.39999979E-04
 Ni  -5.39999979E-04   8.92527008       1.78553998    
 Ni   1.78553998       7.13972998       1.78553998    
 Ni   1.78553998       8.92527008      -5.39999979E-04
 Ni  -1.67999999E-03   7.14316988       3.57367992    
 Ni  -1.67999999E-03   8.92117023       5.36082983    
 Ni   1.78667998       7.14382982       5.36082983    
 Ni   1.78667998       8.92183018       3.57367992    
 Ni  -2.36999989E-03   7.14559984       7.14559984    
 Ni  -2.36999989E-03   8.91940022       8.91940022    
 Ni   1.78736997       7.14559984       8.91940022    
 Ni   1.78736997       8.91940022       7.14559984    
 Ni  -1.67999999E-03   7.14382982       10.7041702    
 Ni  -1.67999999E-03   8.92183018       12.4913197    
 Ni   1.78667998       7.14316988       12.4913197    
 Ni   1.78667998       8.92117023       10.7041702    
 Ni  -5.69000002E-03   10.7069197      -5.69000002E-03
 Ni  -1.81300007E-02   12.4552698       1.80313003    
 Ni   1.79068995       10.7069197       1.79068995    
 Ni   1.80313003       12.4552698      -1.81300007E-02
 Ni  -2.88999989E-03   10.6971302       3.58297992    
 Ni  -2.88999989E-03   12.4820204       5.36786985    
 Ni   1.78884995       10.6897402       5.37525988    
 Ni   1.80621004       12.4413099       3.62368989    
 Ni  -1.67999999E-03   10.7041702       7.14382982    
 Ni  -1.67999999E-03   12.4913197       8.92183018    
 Ni   1.78667998       10.7041702       8.92117023    
 Ni   1.78667998       12.4913197       7.14316988    
 Ni  -3.84999998E-03   10.6897402       10.6897402    
 Ni  -2.12099999E-02   12.4413099       12.4413099    
 Ni   1.78788996       10.6971302       12.4820204    
 Ni   1.78788996       12.4820204       10.6971302    
 Ni   3.60973001      -1.81300007E-02  -1.81300007E-02
 Ni   3.60973001       1.80313003       1.80313003    
 Ni   5.35807991      -5.69000002E-03   1.79068995    
 Ni   5.35807991       1.79068995      -5.69000002E-03
 Ni   3.62368989      -2.12099999E-02   3.62368989    
 Ni   3.58297992       1.78788996       5.36786985    
 Ni   5.37525988      -3.84999998E-03   5.37525988    
 Ni   5.36786985       1.78788996       3.58297992    
 Ni   3.57367992      -1.67999999E-03   7.14316988    
 Ni   3.57367992       1.78667998       8.92183018    
 Ni   5.36082983      -1.67999999E-03   8.92117023    
 Ni   5.36082983       1.78667998       7.14382982    
 Ni   3.58297992      -2.88999989E-03   10.6971302    
 Ni   3.62368989       1.80621004       12.4413099    
 Ni   5.36786985      -2.88999989E-03   12.4820204    
 Ni   5.37525988       1.78884995       10.6897402    
 Ni   3.62368989       3.62368989      -2.12099999E-02
 Ni   3.58297992       5.36786985       1.78788996    
 Ni   5.36786985       3.58297992       1.78788996    
 Ni   5.37525988       5.37525988      -3.84999998E-03
 Ni   3.57991004       3.57991004       3.57991004    
 Ni   3.57553005       5.36104012       5.36104012    
 Ni   5.36104012       3.57553005       5.36104012    
 Ni   5.36104012       5.36104012       3.57553005    
 Ni   3.57429004       3.57429004       7.14412022    
 Ni   3.57565999       5.36289978       8.91802025    
 Ni   5.36289978       3.57565999       8.91802025    
 Ni   5.35958004       5.35958004       7.14059019    
 Ni   3.58673000       3.58673000       10.6885204    
 Ni   3.58673000       5.37648010       12.4782696    
 Ni   5.37648010       3.58673000       12.4782696    
 Ni   5.36620998       5.36620998       10.6987896    
 Ni   3.57367992       7.14316988      -1.67999999E-03
 Ni   3.57367992       8.92183018       1.78667998    
 Ni   5.36082983       7.14382982       1.78667998    
 Ni   5.36082983       8.92117023      -1.67999999E-03
 Ni   3.57429004       7.14412022       3.57429004    
 Ni   3.57565999       8.91802025       5.36289978    
 Ni   5.35958004       7.14059019       5.35958004    
 Ni   5.36289978       8.91802025       3.57565999    
 Ni   3.57441998       7.14143991       7.14143991    
 Ni   3.57441998       8.92356014       8.92356014    
 Ni   5.35972977       7.14346981       8.92152977    
 Ni   5.35972977       8.92152977       7.14346981    
 Ni   3.57565999       7.14697981       10.7020998    
 Ni   3.57429004       8.92088032       12.4907103    
 Ni   5.36289978       7.14697981       12.4893398    
 Ni   5.35958004       8.92440987       10.7054195    
 Ni   3.58297992       10.6971302      -2.88999989E-03
 Ni   3.62368989       12.4413099       1.80621004    
 Ni   5.37525988       10.6897402       1.78884995    
 Ni   5.36786985       12.4820204      -2.88999989E-03
 Ni   3.58673000       10.6885204       3.58673000    
 Ni   3.58673000       12.4782696       5.37648010    
 Ni   5.36620998       10.6987896       5.36620998    
 Ni   5.37648010       12.4782696       3.58673000    
 Ni   3.57565999       10.7020998       7.14697981    
 Ni   3.57429004       12.4907103       8.92088032    
 Ni   5.35958004       10.7054195       8.92440987    
 Ni   5.36289978       12.4893398       7.14697981    
 Ni   3.57553005       10.7039604       10.7039604    
 Ni   3.57991004       12.4850903       12.4850903    
 Ni   5.36104012       10.7039604       12.4894695    
 Ni   5.36104012       12.4894695       10.7039604    
 Ni   7.13972998      -5.39999979E-04  -5.39999979E-04
 Ni   7.13972998       1.78553998       1.78553998    
 Ni   8.92527008      -5.39999979E-04   1.78553998    
 Ni   8.92527008       1.78553998      -5.39999979E-04
 Ni   7.14316988      -1.67999999E-03   3.57367992    
 Ni   7.14382982       1.78667998       5.36082983    
 Ni   8.92117023      -1.67999999E-03   5.36082983    
 Ni   8.92183018       1.78667998       3.57367992    
 Ni   7.14559984      -2.36999989E-03   7.14559984    
 Ni   7.14559984       1.78736997       8.91940022    
 Ni   8.91940022      -2.36999989E-03   8.91940022    
 Ni   8.91940022       1.78736997       7.14559984    
 Ni   7.14382982      -1.67999999E-03   10.7041702    
 Ni   7.14316988       1.78667998       12.4913197    
 Ni   8.92183018      -1.67999999E-03   12.4913197    
 Ni   8.92117023       1.78667998       10.7041702    
 Ni   7.14316988       3.57367992      -1.67999999E-03
 Ni   7.14382982       5.36082983       1.78667998    
 Ni   8.92183018       3.57367992       1.78667998    
 Ni   8.92117023       5.36082983      -1.67999999E-03
 Ni   7.14412022       3.57429004       3.57429004    
 Ni   7.14059019       5.35958004       5.35958004    
 Ni   8.91802025       3.57565999       5.36289978    
 Ni   8.91802025       5.36289978       3.57565999    
 Ni   7.14143991       3.57441998       7.14143991    
 Ni   7.14346981       5.35972977       8.92152977    
 Ni   8.92356014       3.57441998       8.92356014    
 Ni   8.92152977       5.35972977       7.14346981    
 Ni   7.14697981       3.57565999       10.7020998    
 Ni   7.14697981       5.36289978       12.4893398    
 Ni   8.92088032       3.57429004       12.4907103    
 Ni   8.92440987       5.35958004       10.7054195    
 Ni   7.14559984       7.14559984      -2.36999989E-03
 Ni   7.14559984       8.91940022       1.78736997    
 Ni   8.91940022       7.14559984       1.78736997    
 Ni   8.91940022       8.91940022      -2.36999989E-03
 Ni   7.14143991       7.14143991       3.57441998    
 Ni   7.14346981       8.92152977       5.35972977    
 Ni   8.92152977       7.14346981       5.35972977    
 Ni   8.92356014       8.92356014       3.57441998    
 Ni   7.14233017       7.14233017       7.14233017    
 Ni   7.14233017       8.92267036       8.92267036    
 Ni   8.92267036       7.14233017       8.92267036    
 Ni   8.92267036       8.92267036       7.14233017    
 Ni   7.14346981       7.14346981       10.7052698    
 Ni   7.14143991       8.92356014       12.4905796    
 Ni   8.92356014       7.14143991       12.4905796    
 Ni   8.92152977       8.92152977       10.7052698    
 Ni   7.14382982       10.7041702      -1.67999999E-03
 Ni   7.14316988       12.4913197       1.78667998    
 Ni   8.92117023       10.7041702       1.78667998    
 Ni   8.92183018       12.4913197      -1.67999999E-03
 Ni   7.14697981       10.7020998       3.57565999    
 Ni   7.14697981       12.4893398       5.36289978    
 Ni   8.92440987       10.7054195       5.35958004    
 Ni   8.92088032       12.4907103       3.57429004    
 Ni   7.14346981       10.7052698       7.14346981    
 Ni   7.14143991       12.4905796       8.92356014    
 Ni   8.92152977       10.7052698       8.92152977    
 Ni   8.92356014       12.4905796       7.14143991    
 Ni   7.14059019       10.7054195       10.7054195    
 Ni   7.14412022       12.4907103       12.4907103    
 Ni   8.91802025       10.7020998       12.4893398    
 Ni   8.91802025       12.4893398       10.7020998    
 Ni   10.7069197      -5.69000002E-03  -5.69000002E-03
 Ni   10.7069197       1.79068995       1.79068995    
 Ni   12.4552698      -1.81300007E-02   1.80313003    
 Ni   12.4552698       1.80313003      -1.81300007E-02
 Ni   10.6971302      -2.88999989E-03   3.58297992    
 Ni   10.6897402       1.78884995       5.37525988    
 Ni   12.4820204      -2.88999989E-03   5.36786985    
 Ni   12.4413099       1.80621004       3.62368989    
 Ni   10.7041702      -1.67999999E-03   7.14382982    
 Ni   10.7041702       1.78667998       8.92117023    
 Ni   12.4913197      -1.67999999E-03   8.92183018    
 Ni   12.4913197       1.78667998       7.14316988    
 Ni   10.6897402      -3.84999998E-03   10.6897402    
 Ni   10.6971302       1.78788996       12.4820204    
 Ni   12.4413099      -2.12099999E-02   12.4413099    
 Ni   12.4820204       1.78788996       10.6971302    
 Ni   10.6971302       3.58297992      -2.88999989E-03
 Ni   10.6897402       5.37525988       1.78884995    
 Ni   12.4413099       3.62368989       1.80621004    
 Ni   12.4820204       5.36786985      -2.88999989E-03
 Ni   10.6885204       3.58673000       3.58673000    
 Ni   10.6987896       5.36620998       5.36620998    
 Ni   12.4782696       3.58673000       5.37648010    
 Ni   12.4782696       5.37648010       3.58673000    
 Ni   10.7020998       3.57565999       7.14697981    
 Ni   10.7054195       5.35958004       8.92440987    
 Ni   12.4907103       3.57429004       8.92088032    
 Ni   12.4893398       5.36289978       7.14697981    
 Ni   10.7039604       3.57553005       10.7039604    
 Ni   10.7039604       5.36104012       12.4894695    
 Ni   12.4850903       3.57991004       12.4850903    
 Ni   12.4894695       5.36104012       10.7039604    
 Ni   10.7041702       7.14382982      -1.67999999E-03
 Ni   10.7041702       8.92117023       1.78667998    
 Ni   12.4913197       7.14316988       1.78667998    
 Ni   12.4913197       8.92183018      -1.67999999E-03
 Ni   10.7020998       7.14697981       3.57565999    
 Ni   10.7054195       8.92440987       5.35958004    
 Ni   12.4893398       7.14697981       5.36289978    
 Ni   12.4907103       8.92088032       3.57429004    
 Ni   10.7052698       7.14346981       7.14346981    
 Ni   10.7052698       8.92152977       8.92152977    
 Ni   12.4905796       7.14143991       8.92356014    
 Ni   12.4905796       8.92356014       7.14143991    
 Ni   10.7054195       7.14059019       10.7054195    
 Ni   10.7020998       8.91802025       12.4893398    
 Ni   12.4907103       7.14412022       12.4907103    
 Ni   12.4893398       8.91802025       10.7020998    
 Ni   10.6897402       10.6897402      -3.84999998E-03
 Ni   10.6971302       12.4820204       1.78788996    
 Ni   12.4820204       10.6971302       1.78788996    
 Ni   12.4413099       12.4413099      -2.12099999E-02
 Ni   10.7039604       10.7039604       3.57553005    
 Ni   10.7039604       12.4894695       5.36104012    
 Ni   12.4894695       10.7039604       5.36104012    
 Ni   12.4850903       12.4850903       3.57991004    
 Ni   10.7054195       10.7054195       7.14059019    
 Ni   10.7020998       12.4893398       8.91802025    
 Ni   12.4893398       10.7020998       8.91802025    
 Ni   12.4907103       12.4907103       7.14412022    
 Ni   10.6987896       10.6987896       10.6987896    
 Ni   10.6885204       12.4782696       12.4782696    
 Ni   12.4782696       10.6885204       12.4782696    
 Ni   12.4782696       12.4782696       10.6885204    
 O   0.892499983      0.892499983      0.892499983    
