         260
 Energy:  -1414.4677002000001     
 X   0.00000000       0.00000000       0.00000000    
 X   0.00000000      -15.1462221       0.00000000    
 X   0.00000000      -7.57311106      -13.1170130    
 X   29.0000000       0.00000000       0.00000000    
 X   0.00000000      -22.7193336      -13.1170130    
 X   29.0000000      -15.1462221       0.00000000    
 X   29.0000000      -7.57311106      -13.1170130    
 X   29.0000000      -22.7193336      -13.1170130    
 Ni   3.14274001      -10.0974798      -5.82978010    
 Ni   3.14274001      -12.6218500      -10.2021198    
 Ni   3.14274001      -7.57311010      -1.45745003    
 Ni   3.14274001      -15.1462202      -5.82978010    
 Ni   3.14274001      -17.6705894      -10.2021198    
 Ni   3.14274001      -12.6218500      -1.45745003    
 Ni   3.14274001      -5.04873991      -5.82978010    
 Ni   3.14274001      -7.57311010      -10.2021198    
 Ni   3.14274001      -2.52436996      -1.45745003    
 Ni   5.11576986      -12.6218500      -7.28723001    
 Ni   5.11576986      -15.1462202      -11.6595697    
 Ni   5.11576986      -10.0974798      -2.91489005    
 Ni   5.11576986      -17.6705894      -7.28723001    
 Ni   5.11576986      -20.1949596      -11.6595697    
 Ni   5.11576986      -15.1462202      -2.91489005    
 Ni   5.11576986      -7.57311010      -7.28723001    
 Ni   5.11576986      -10.0974798      -11.6595697    
 Ni   5.11576986      -5.04873991      -2.91489005    
 Ni   7.07866001      -15.1462202      -8.74468040    
 Ni   7.07866001      -10.0974798       0.00000000    
 Ni   7.07866001      -12.6218500      -4.37234020    
 Ni   7.07866001      -5.04873991      -8.74468040    
 Ni   7.07866001      -0.00000000       0.00000000    
 Ni   7.07866001      -2.52436996      -4.37234020    
 Ni   7.07866001      -10.0974798      -8.74468040    
 Ni   7.07866001      -5.04873991      -0.00000000    
 Ni   7.07866001      -7.57311010      -4.37234020    
 Ni   9.04018974      -17.6705894      -10.2021198    
 Ni   9.04018974      -12.6218500      -1.45745003    
 Ni   9.04018974      -15.1462202      -5.82978010    
 Ni   9.04018974      -7.57311010      -10.2021198    
 Ni   9.04018974      -2.52436996      -1.45745003    
 Ni   9.04018974      -5.04873991      -5.82978010    
 Ni   9.04018974      -12.6218500      -10.2021198    
 Ni   9.04018974      -7.57311010      -1.45745003    
 Ni   9.04018974      -10.0974798      -5.82978010    
 Ni   11.0017204      -20.1949596      -11.6595697    
 Ni   11.0017204      -15.1462202      -2.91489005    
 Ni   11.0017204      -17.6705894      -7.28723001    
 Ni   11.0017204      -10.0974798      -11.6595697    
 Ni   11.0017204      -5.04873991      -2.91489005    
 Ni   11.0017204      -7.57311010      -7.28723001    
 Ni   11.0017204      -15.1462202      -11.6595697    
 Ni   11.0017204      -10.0974798      -2.91489005    
 Ni   11.0017204      -12.6218500      -7.28723001    
 Ni   12.9646101      -0.00000000      -0.00000000    
 Ni   12.9646101      -2.52436996      -4.37234020    
 Ni   12.9646101      -5.04873991      -8.74468040    
 Ni   12.9646101      -5.04873991      -0.00000000    
 Ni   12.9646101      -7.57311010      -4.37234020    
 Ni   12.9646101      -10.0974798      -8.74468040    
 Ni   12.9646101      -10.0974798      -0.00000000    
 Ni   12.9646101      -12.6218500      -4.37234020    
 Ni   12.9646101      -15.1462202      -8.74468040    
 Ni   14.9376402      -2.52436996      -1.45745003    
 Ni   14.9376402      -5.04873991      -5.82978010    
 Ni   14.9376402      -7.57311010      -10.2021198    
 Ni   14.9376402      -7.57311010      -1.45745003    
 Ni   14.9376402      -10.0974798      -5.82978010    
 Ni   14.9376402      -12.6218500      -10.2021198    
 Ni   14.9376402      -12.6218500      -1.45745003    
 Ni   14.9376402      -15.1462202      -5.82978010    
 Ni   14.9376402      -17.6705894      -10.2021198    
 Ni   3.14274001      -6.31092978      -3.64361000    
 Ni   3.14274001      -8.83530045      -8.01595020    
 Ni   3.14274001      -11.3596697      -12.3882904    
 Ni   3.14274001      -11.3596697      -3.64361000    
 Ni   3.14274001      -13.8840399      -8.01595020    
 Ni   3.14274001      -16.4084091      -12.3882904    
 Ni   3.14274001      -16.4084091      -3.64361000    
 Ni   3.14274001      -18.9327793      -8.01595020    
 Ni   3.14274001      -21.4571495      -12.3882904    
 Ni   5.11576986      -8.83530045      -5.10105991    
 Ni   5.11576986      -11.3596697      -9.47340012    
 Ni   5.11576986      -6.31092978     -0.728720009    
 Ni   5.11576986      -13.8840399      -5.10105991    
 Ni   5.11576986      -16.4084091      -9.47340012    
 Ni   5.11576986      -11.3596697     -0.728720009    
 Ni   5.11576986      -3.78656006      -5.10105991    
 Ni   5.11576986      -6.31092978      -9.47340012    
 Ni   5.11576986      -1.26218998     -0.728720009    
 Ni   7.07866001      -11.3596697      -6.55850983    
 Ni   7.07866001      -13.8840399      -10.9308395    
 Ni   7.07866001      -8.83530045      -2.18617010    
 Ni   7.07866001      -16.4084091      -6.55850983    
 Ni   7.07866001      -18.9327793      -10.9308395    
 Ni   7.07866001      -13.8840399      -2.18617010    
 Ni   7.07866001      -6.31092978      -6.55850983    
 Ni   7.07866001      -8.83530045      -10.9308395    
 Ni   7.07866001      -3.78656006      -2.18617010    
 Ni   9.04018974      -13.8840399      -8.01595020    
 Ni   9.04018974      -16.4084091      -12.3882904    
 Ni   9.04018974      -11.3596697      -3.64361000    
 Ni   9.04018974      -18.9327793      -8.01595020    
 Ni   9.04018974      -21.4571495      -12.3882904    
 Ni   9.04018974      -16.4084091      -3.64361000    
 Ni   9.04018974      -8.83530045      -8.01595020    
 Ni   9.04018974      -11.3596697      -12.3882904    
 Ni   9.04018974      -6.31092978      -3.64361000    
 Ni   11.0017204      -16.4084091      -9.47340012    
 Ni   11.0017204      -11.3596697     -0.728720009    
 Ni   11.0017204      -13.8840399      -5.10105991    
 Ni   11.0017204      -6.31092978      -9.47340012    
 Ni   11.0017204      -1.26218998     -0.728720009    
 Ni   11.0017204      -3.78656006      -5.10105991    
 Ni   11.0017204      -11.3596697      -9.47340012    
 Ni   11.0017204      -6.31092978     -0.728720009    
 Ni   11.0017204      -8.83530045      -5.10105991    
 Ni   12.9646101      -18.9327793      -10.9308395    
 Ni   12.9646101      -13.8840399      -2.18617010    
 Ni   12.9646101      -16.4084091      -6.55850983    
 Ni   12.9646101      -8.83530045      -10.9308395    
 Ni   12.9646101      -3.78656006      -2.18617010    
 Ni   12.9646101      -6.31092978      -6.55850983    
 Ni   12.9646101      -13.8840399      -10.9308395    
 Ni   12.9646101      -8.83530045      -2.18617010    
 Ni   12.9646101      -11.3596697      -6.55850983    
 Ni   14.9376402      -21.4571495      -12.3882904    
 Ni   14.9376402      -16.4084091      -3.64361000    
 Ni   14.9376402      -18.9327793      -8.01595020    
 Ni   14.9376402      -11.3596697      -12.3882904    
 Ni   14.9376402      -6.31092978      -3.64361000    
 Ni   14.9376402      -8.83530045      -8.01595020    
 Ni   14.9376402      -16.4084091      -12.3882904    
 Ni   14.9376402      -11.3596697      -3.64361000    
 Ni   14.9376402      -13.8840399      -8.01595020    
 Ni   3.14274001      -7.57311010      -5.82978010    
 Ni   3.14274001      -10.0974798      -10.2021198    
 Ni   3.14274001      -5.04873991      -1.45745003    
 Ni   3.14274001      -12.6218500      -5.82978010    
 Ni   3.14274001      -15.1462202      -10.2021198    
 Ni   3.14274001      -10.0974798      -1.45745003    
 Ni   3.14274001      -17.6705894      -5.82978010    
 Ni   3.14274001      -20.1949596      -10.2021198    
 Ni   3.14274001      -15.1462202      -1.45745003    
 Ni   5.11576986      -10.0974798      -7.28723001    
 Ni   5.11576986      -12.6218500      -11.6595697    
 Ni   5.11576986      -7.57311010      -2.91489005    
 Ni   5.11576986      -15.1462202      -7.28723001    
 Ni   5.11576986      -17.6705894      -11.6595697    
 Ni   5.11576986      -12.6218500      -2.91489005    
 Ni   5.11576986      -5.04873991      -7.28723001    
 Ni   5.11576986      -7.57311010      -11.6595697    
 Ni   5.11576986      -2.52436996      -2.91489005    
 Ni   7.07866001      -12.6218500      -8.74468040    
 Ni   7.07866001      -7.57311010       0.00000000    
 Ni   7.07866001      -10.0974798      -4.37234020    
 Ni   7.07866001      -17.6705894      -8.74468040    
 Ni   7.07866001      -12.6218500      -0.00000000    
 Ni   7.07866001      -15.1462202      -4.37234020    
 Ni   7.07866001      -7.57311010      -8.74468040    
 Ni   7.07866001      -2.52436996       0.00000000    
 Ni   7.07866001      -5.04873991      -4.37234020    
 Ni   9.04018974      -15.1462202      -10.2021198    
 Ni   9.04018974      -10.0974798      -1.45745003    
 Ni   9.04018974      -12.6218500      -5.82978010    
 Ni   9.04018974      -20.1949596      -10.2021198    
 Ni   9.04018974      -15.1462202      -1.45745003    
 Ni   9.04018974      -17.6705894      -5.82978010    
 Ni   9.04018974      -10.0974798      -10.2021198    
 Ni   9.04018974      -5.04873991      -1.45745003    
 Ni   9.04018974      -7.57311010      -5.82978010    
 Ni   11.0017204      -17.6705894      -11.6595697    
 Ni   11.0017204      -12.6218500      -2.91489005    
 Ni   11.0017204      -15.1462202      -7.28723001    
 Ni   11.0017204      -7.57311010      -11.6595697    
 Ni   11.0017204      -2.52436996      -2.91489005    
 Ni   11.0017204      -5.04873991      -7.28723001    
 Ni   11.0017204      -12.6218500      -11.6595697    
 Ni   11.0017204      -7.57311010      -2.91489005    
 Ni   11.0017204      -10.0974798      -7.28723001    
 Ni   12.9646101      -12.6218500      -0.00000000    
 Ni   12.9646101      -15.1462202      -4.37234020    
 Ni   12.9646101      -17.6705894      -8.74468040    
 Ni   12.9646101      -2.52436996      -0.00000000    
 Ni   12.9646101      -5.04873991      -4.37234020    
 Ni   12.9646101      -7.57311010      -8.74468040    
 Ni   12.9646101      -7.57311010      -0.00000000    
 Ni   12.9646101      -10.0974798      -4.37234020    
 Ni   12.9646101      -12.6218500      -8.74468040    
 Ni   14.9376402      -15.1462202      -1.45745003    
 Ni   14.9376402      -17.6705894      -5.82978010    
 Ni   14.9376402      -20.1949596      -10.2021198    
 Ni   14.9376402      -5.04873991      -1.45745003    
 Ni   14.9376402      -7.57311010      -5.82978010    
 Ni   14.9376402      -10.0974798      -10.2021198    
 Ni   14.9376402      -10.0974798      -1.45745003    
 Ni   14.9376402      -12.6218500      -5.82978010    
 Ni   14.9376402      -15.1462202      -10.2021198    
 Ni   3.14274001      -8.83530045      -3.64361000    
 Ni   3.14274001      -11.3596697      -8.01595020    
 Ni   3.14274001      -13.8840399      -12.3882904    
 Ni   3.14274001      -13.8840399      -3.64361000    
 Ni   3.14274001      -16.4084091      -8.01595020    
 Ni   3.14274001      -18.9327793      -12.3882904    
 Ni   3.14274001      -3.78656006      -3.64361000    
 Ni   3.14274001      -6.31092978      -8.01595020    
 Ni   3.14274001      -8.83530045      -12.3882904    
 Ni   5.11576986      -11.3596697      -5.10105991    
 Ni   5.11576986      -13.8840399      -9.47340012    
 Ni   5.11576986      -8.83530045     -0.728720009    
 Ni   5.11576986      -16.4084091      -5.10105991    
 Ni   5.11576986      -18.9327793      -9.47340012    
 Ni   5.11576986      -13.8840399     -0.728720009    
 Ni   5.11576986      -6.31092978      -5.10105991    
 Ni   5.11576986      -8.83530045      -9.47340012    
 Ni   5.11576986      -3.78656006     -0.728720009    
 Ni   7.07866001      -13.8840399      -6.55850983    
 Ni   7.07866001      -16.4084091      -10.9308395    
 Ni   7.07866001      -11.3596697      -2.18617010    
 Ni   7.07866001      -3.78656006      -6.55850983    
 Ni   7.07866001      -6.31092978      -10.9308395    
 Ni   7.07866001      -1.26218998      -2.18617010    
 Ni   7.07866001      -8.83530045      -6.55850983    
 Ni   7.07866001      -11.3596697      -10.9308395    
 Ni   7.07866001      -6.31092978      -2.18617010    
 Ni   9.04018974      -16.4084091      -8.01595020    
 Ni   9.04018974      -18.9327793      -12.3882904    
 Ni   9.04018974      -13.8840399      -3.64361000    
 Ni   9.04018974      -6.31092978      -8.01595020    
 Ni   9.04018974      -8.83530045      -12.3882904    
 Ni   9.04018974      -3.78656006      -3.64361000    
 Ni   9.04018974      -11.3596697      -8.01595020    
 Ni   9.04018974      -13.8840399      -12.3882904    
 Ni   9.04018974      -8.83530045      -3.64361000    
 Ni   11.0017204      -18.9327793      -9.47340012    
 Ni   11.0017204      -13.8840399     -0.728720009    
 Ni   11.0017204      -16.4084091      -5.10105991    
 Ni   11.0017204      -8.83530045      -9.47340012    
 Ni   11.0017204      -3.78656006     -0.728720009    
 Ni   11.0017204      -6.31092978      -5.10105991    
 Ni   11.0017204      -13.8840399      -9.47340012    
 Ni   11.0017204      -8.83530045     -0.728720009    
 Ni   11.0017204      -11.3596697      -5.10105991    
 Ni   12.9646101      -6.31092978      -10.9308395    
 Ni   12.9646101      -1.26218998      -2.18617010    
 Ni   12.9646101      -3.78656006      -6.55850983    
 Ni   12.9646101      -11.3596697      -10.9308395    
 Ni   12.9646101      -6.31092978      -2.18617010    
 Ni   12.9646101      -8.83530045      -6.55850983    
 Ni   12.9646101      -16.4084091      -10.9308395    
 Ni   12.9646101      -11.3596697      -2.18617010    
 Ni   12.9646101      -13.8840399      -6.55850983    
 Ni   14.9376402      -8.83530045      -12.3882904    
 Ni   14.9376402      -3.78656006      -3.64361000    
 Ni   14.9376402      -6.31092978      -8.01595020    
 Ni   14.9376402      -13.8840399      -12.3882904    
 Ni   14.9376402      -8.83530045      -3.64361000    
 Ni   14.9376402      -11.3596697      -8.01595020    
 Ni   14.9376402      -18.9327793      -12.3882904    
 Ni   14.9376402      -13.8840399      -3.64361000    
 Ni   14.9376402      -16.4084091      -8.01595020    
