          38
 Energy:  -228.78990720000002     
 X   0.00000000       0.00000000       0.00000000    
 X   4.80502796       0.00000000       0.00000000    
 X  -2.40251398       4.16127634       0.00000000    
 X   0.00000000       0.00000000       13.1162539    
 X   2.40251398       4.16127634       0.00000000    
 X   4.80502796       0.00000000       13.1162539    
 X  -2.40251398       4.16127634       13.1162539    
 X   2.40251398       4.16127634       13.1162539    
 Al   0.00000000       0.00000000       1.93994999    
 Al  -0.00000000       2.77417994      0.246099994    
 Al  -0.00000000       2.77417994       4.12598991    
 Al   2.40250993       1.38708997       2.43214011    
 Al   2.40250993       1.38708997       6.31202984    
 Al   0.00000000       0.00000000       4.61817980    
 Al   0.00000000       0.00000000       8.49806976    
 Al  -0.00000000       2.77417994       6.80422020    
 Al  -0.00000000       2.77417994       10.6841202    
 Al   2.40250993       1.38708997       8.99026012    
 Al   2.40250993       1.38708997       12.8701601    
 Al   0.00000000       0.00000000       11.1763096    
 O    1.47104001       0.00000000       3.27905989    
 O    3.13803005      0.113130003       1.09301996    
 O    4.06950998       1.27395999       3.27905989    
 O    1.66699004       2.88732004       3.27905989    
 O    3.13803005       2.66105008       1.09301996    
 O   0.931469977       1.38708997       1.09301996    
 O    3.87354994       1.38708997       7.65115023    
 O   0.735520005       1.50022995       5.46510983    
 O    1.66699004       2.66105008       7.65115023    
 O    1.66699004      0.113130003       7.65115023    
 O   0.735520005       4.04814005       5.46510983    
 O   -1.47104001       2.77417994       5.46510983    
 O    1.47104001       2.77417994       12.0232296    
 O   -1.66699004       2.88732004       9.83718967    
 O  -0.735520005       4.04814005       12.0232296    
 O  -0.735520005       1.50022995       12.0232296    
 O   0.735520005       1.27395999       9.83718967    
 O    3.33399010       0.00000000       9.83718967    
          38
 Energy:  -228.78996050000001     
 X   0.00000000       0.00000000       0.00000000    
 X   4.80502796       0.00000000       0.00000000    
 X  -2.40251398       4.16127634       0.00000000    
 X   0.00000000       0.00000000       13.1162539    
 X   2.40251398       4.16127634       0.00000000    
 X   4.80502796       0.00000000       13.1162539    
 X  -2.40251398       4.16127634       13.1162539    
 X   2.40251398       4.16127634       13.1162539    
 Al  -0.00000000       0.00000000       1.93973005    
 Al  -0.00000000       2.77417994      0.246319994    
 Al  -0.00000000       2.77417994       4.12577009    
 Al   2.40250993       1.38708997       2.43235993    
 Al   2.40250993       1.38708997       6.31181002    
 Al  -0.00000000      -0.00000000       4.61840010    
 Al  -0.00000000       0.00000000       8.49785042    
 Al  -0.00000000       2.77417994       6.80444002    
 Al  -0.00000000       2.77417994       10.6838999    
 Al   2.40250993       1.38708997       8.99048042    
 Al   2.40250993       1.38708997       12.8699398    
 Al  -0.00000000      -0.00000000       11.1765299    
 O    1.47088003      -0.00000000       3.27905989    
 O    3.13794994      0.113270000       1.09301996    
 O    4.06959009       1.27382004       3.27905989    
 O    1.66707003       2.88745999       3.27905989    
 O    3.13794994       2.66090989       1.09301996    
 O   0.931630015       1.38708997       1.09301996    
 O    3.87339997       1.38708997       7.65115023    
 O   0.735440016       1.50036001       5.46510983    
 O    1.66707003       2.66090989       7.65115023    
 O    1.66707003      0.113270000       7.65115023    
 O   0.735440016       4.04799986       5.46510983    
 O   -1.47088003       2.77417994       5.46510983    
 O    1.47088003       2.77417994       12.0232296    
 O   -1.66707003       2.88745999       9.83718967    
 O  -0.735440016       4.04799986       12.0232296    
 O  -0.735440016       1.50036001       12.0232296    
 O   0.735440016       1.27382004       9.83718967    
 O    3.33415008       0.00000000       9.83718967    
          38
 Energy:  -228.79000199999999     
 X   0.00000000       0.00000000       0.00000000    
 X   4.80502796       0.00000000       0.00000000    
 X  -2.40251398       4.16127634       0.00000000    
 X   0.00000000       0.00000000       13.1162539    
 X   2.40251398       4.16127634       0.00000000    
 X   4.80502796       0.00000000       13.1162539    
 X  -2.40251398       4.16127634       13.1162539    
 X   2.40251398       4.16127634       13.1162539    
 Al  -0.00000000       0.00000000       1.93923998    
 Al  -0.00000000       2.77417994      0.246810004    
 Al  -0.00000000       2.77417994       4.12527990    
 Al   2.40250993       1.38708997       2.43284988    
 Al   2.40250993       1.38708997       6.31131983    
 Al  -0.00000000      -0.00000000       4.61888981    
 Al  -0.00000000       0.00000000       8.49736023    
 Al  -0.00000000       2.77417994       6.80493021    
 Al  -0.00000000       2.77417994       10.6834002    
 Al   2.40250993       1.38708997       8.99098015    
 Al   2.40250993       1.38708997       12.8694496    
 Al  -0.00000000      -0.00000000       11.1770201    
 O    1.47052002      -0.00000000       3.27905989    
 O    3.13777995      0.113580003       1.09301996    
 O    4.06976986       1.27350998       3.27905989    
 O    1.66725004       2.88776994       3.27905989    
 O    3.13777995       2.66059995       1.09301996    
 O   0.931990027       1.38708997       1.09301996    
 O    3.87303996       1.38708997       7.65115023    
 O   0.735260010       1.50066996       5.46510983    
 O    1.66725004       2.66059995       7.65115023    
 O    1.66725004      0.113580003       7.65115023    
 O   0.735260010       4.04768991       5.46510983    
 O   -1.47052002       2.77417994       5.46510983    
 O    1.47052002       2.77417994       12.0232296    
 O   -1.66725004       2.88776994       9.83718967    
 O  -0.735260010       4.04768991       12.0232296    
 O  -0.735260010       1.50066996       12.0232296    
 O   0.735260010       1.27350998       9.83718967    
 O    3.33450007       0.00000000       9.83718967    
          38
 Energy:  -228.78999869999998     
 X   0.00000000       0.00000000       0.00000000    
 X   4.80502796       0.00000000       0.00000000    
 X  -2.40251398       4.16127634       0.00000000    
 X   0.00000000       0.00000000       13.1162539    
 X   2.40251398       4.16127634       0.00000000    
 X   4.80502796       0.00000000       13.1162539    
 X  -2.40251398       4.16127634       13.1162539    
 X   2.40251398       4.16127634       13.1162539    
 Al  -0.00000000       0.00000000       1.93921995    
 Al  -0.00000000       2.77417994      0.246820003    
 Al  -0.00000000       2.77417994       4.12525988    
 Al   2.40250993       1.38708997       2.43285990    
 Al   2.40250993       1.38708997       6.31130981    
 Al  -0.00000000       0.00000000       4.61889982    
 Al  -0.00000000       0.00000000       8.49734974    
 Al  -0.00000000       2.77417994       6.80495024    
 Al  -0.00000000       2.77417994       10.6833897    
 Al   2.40250993       1.38708997       8.99098969    
 Al   2.40250993       1.38708997       12.8694296    
 Al  -0.00000000       0.00000000       11.1770296    
 O    1.47056997       0.00000000       3.27905989    
 O    3.13779998      0.113550000       1.09301996    
 O    4.06974983       1.27355003       3.27905989    
 O    1.66723001       2.88772988       3.27905989    
 O    3.13779998       2.66064000       1.09301996    
 O   0.931949973       1.38708997       1.09301996    
 O    3.87308002       1.38708997       7.65115023    
 O   0.735279977       1.50064003       5.46510983    
 O    1.66723001       2.66064000       7.65115023    
 O    1.66723001      0.113550000       7.65115023    
 O   0.735279977       4.04772997       5.46510983    
 O   -1.47056997       2.77417994       5.46510983    
 O    1.47056997       2.77417994       12.0232296    
 O   -1.66723001       2.88772988       9.83718967    
 O  -0.735279977       4.04772997       12.0232296    
 O  -0.735279977       1.50064003       12.0232296    
 O   0.735279977       1.27355003       9.83718967    
 O    3.33446002       0.00000000       9.83718967    
          38
 Energy:  -228.78999709999999     
 X   0.00000000       0.00000000       0.00000000    
 X   4.80502796       0.00000000       0.00000000    
 X  -2.40251398       4.16127634       0.00000000    
 X   0.00000000       0.00000000       13.1162539    
 X   2.40251398       4.16127634       0.00000000    
 X   4.80502796       0.00000000       13.1162539    
 X  -2.40251398       4.16127634       13.1162539    
 X   2.40251398       4.16127634       13.1162539    
 Al  -0.00000000       0.00000000       1.93921995    
 Al  -0.00000000       2.77417994      0.246830001    
 Al  -0.00000000       2.77417994       4.12525988    
 Al   2.40250993       1.38708997       2.43286991    
 Al   2.40250993       1.38708997       6.31129980    
 Al  -0.00000000       0.00000000       4.61890984    
 Al  -0.00000000       0.00000000       8.49734020    
 Al  -0.00000000       2.77417994       6.80495024    
 Al  -0.00000000       2.77417994       10.6833897    
 Al   2.40250993       1.38708997       8.99100018    
 Al   2.40250993       1.38708997       12.8694296    
 Al  -0.00000000       0.00000000       11.1770401    
 O    1.47057998       0.00000000       3.27905989    
 O    3.13780999      0.113530003       1.09301996    
 O    4.06973982       1.27356005       3.27905989    
 O    1.66722000       2.88771009       3.27905989    
 O    3.13780999       2.66065001       1.09301996    
 O   0.931930006       1.38708997       1.09301996    
 O    3.87310004       1.38708997       7.65115023    
 O   0.735289991       1.50062001       5.46510983    
 O    1.66722000       2.66065001       7.65115023    
 O    1.66722000      0.113530003       7.65115023    
 O   0.735289991       4.04775000       5.46510983    
 O   -1.47057998       2.77417994       5.46510983    
 O    1.47057998       2.77417994       12.0232296    
 O   -1.66722000       2.88771009       9.83718967    
 O  -0.735289991       4.04775000       12.0232296    
 O  -0.735289991       1.50062001       12.0232296    
 O   0.735289991       1.27356005       9.83718967    
 O    3.33443999       0.00000000       9.83718967    
