          38
 Energy:  -228.78999709999999      en  -221.88772710000001      edisp  -6.9022699999999997     
 X   0.00000000       0.00000000       0.00000000    
 X   4.80502796       0.00000000       0.00000000    
 X  -2.40251398       4.16127634       0.00000000    
 X   0.00000000       0.00000000       13.1162539    
 X   2.40251398       4.16127634       0.00000000    
 X   4.80502796       0.00000000       13.1162539    
 X  -2.40251398       4.16127634       13.1162539    
 X   2.40251398       4.16127634       13.1162539    
 Al  -0.00000000       0.00000000       1.93921995    
 Al  -0.00000000       2.77417994      0.246830001    
 Al  -0.00000000       2.77417994       4.12525988    
 Al   2.40250993       1.38708997       2.43286991    
 Al   2.40250993       1.38708997       6.31129980    
 Al  -0.00000000       0.00000000       4.61890984    
 Al  -0.00000000       0.00000000       8.49734020    
 Al  -0.00000000       2.77417994       6.80495024    
 Al  -0.00000000       2.77417994       10.6833897    
 Al   2.40250993       1.38708997       8.99100018    
 Al   2.40250993       1.38708997       12.8694296    
 Al  -0.00000000       0.00000000       11.1770401    
 O    1.47057998       0.00000000       3.27905989    
 O    3.13780999      0.113530003       1.09301996    
 O    4.06973982       1.27356005       3.27905989    
 O    1.66722000       2.88771009       3.27905989    
 O    3.13780999       2.66065001       1.09301996    
 O   0.931930006       1.38708997       1.09301996    
 O    3.87310004       1.38708997       7.65115023    
 O   0.735289991       1.50062001       5.46510983    
 O    1.66722000       2.66065001       7.65115023    
 O    1.66722000      0.113530003       7.65115023    
 O   0.735289991       4.04775000       5.46510983    
 O   -1.47057998       2.77417994       5.46510983    
 O    1.47057998       2.77417994       12.0232296    
 O   -1.66722000       2.88771009       9.83718967    
 O  -0.735289991       4.04775000       12.0232296    
 O  -0.735289991       1.50062001       12.0232296    
 O   0.735289991       1.27356005       9.83718967    
 O    3.33443999       0.00000000       9.83718967    
