         265
 Energy:  -1275.6805927999999     
 X   0.00000000       0.00000000       0.00000000    
 X   14.2799997       0.00000000       0.00000000    
 X   0.00000000       14.2799997       0.00000000    
 X   0.00000000       0.00000000       14.2799997    
 X   14.2799997       14.2799997       0.00000000    
 X   14.2799997       0.00000000       14.2799997    
 X   0.00000000       14.2799997       14.2799997    
 X   14.2799997       14.2799997       14.2799997    
 Ni -0.127780005       0.00000000      -0.00000000    
 Ni  -3.51799987E-02   1.82018006       1.82018006    
 Ni   1.78499997       0.00000000       1.91278005    
 Ni   1.78499997       1.91278005      -0.00000000    
 Ni  -2.24300008E-02   0.00000000       3.59494996    
 Ni  -5.65000018E-03   1.79065001       5.36167002    
 Ni   1.78499997       0.00000000       5.35756016    
 Ni   1.78499997       1.80743003       3.59494996    
 Ni  -2.36999989E-03   0.00000000       7.13999987    
 Ni  -5.65000018E-03   1.79065001       8.91833019    
 Ni   1.78499997       0.00000000       8.92243958    
 Ni   1.78499997       1.78736997       7.13999987    
 Ni  -2.24300008E-02   0.00000000       10.6850500    
 Ni  -3.51799987E-02   1.82018006       12.4598198    
 Ni   1.78499997       0.00000000       12.3672199    
 Ni   1.78499997       1.80743003       10.6850500    
 Ni  -2.24300008E-02   3.59494996      -0.00000000    
 Ni  -5.65000018E-03   5.36167002       1.79065001    
 Ni   1.78499997       3.59494996       1.80743003    
 Ni   1.78499997       5.35756016      -0.00000000    
 Ni  -6.83999993E-03   3.58353996       3.58353996    
 Ni  -3.81999998E-03   5.36002016       5.36002016    
 Ni   1.78499997       3.58031988       5.36430979    
 Ni   1.78499997       5.36430979       3.58031988    
 Ni  -3.12000001E-03   3.57453990       7.13999987    
 Ni  -3.81999998E-03   5.36002016       8.91998005    
 Ni   1.78499997       3.58031988       8.91569042    
 Ni   1.78499997       5.36065006       7.13999987    
 Ni  -6.83999993E-03   3.58353996       10.6964598    
 Ni  -5.65000018E-03   5.36167002       12.4893503    
 Ni   1.78499997       3.59494996       12.4725704    
 Ni   1.78499997       5.36430979       10.6996803    
 Ni  -2.36999989E-03   7.13999987      -0.00000000    
 Ni  -5.65000018E-03   8.91833019       1.79065001    
 Ni   1.78499997       7.13999987       1.78736997    
 Ni   1.78499997       8.92243958      -0.00000000    
 Ni  -3.12000001E-03   7.13999987       3.57453990    
 Ni  -3.81999998E-03   8.91998005       5.36002016    
 Ni   1.78499997       7.13999987       5.36065006    
 Ni   1.78499997       8.91569042       3.58031988    
 Ni  -3.50999995E-03   7.13999987       7.13999987    
 Ni  -3.81999998E-03   8.91998005       8.91998005    
 Ni   1.78499997       7.13999987       8.91934967    
 Ni   1.78499997       8.91934967       7.13999987    
 Ni  -3.12000001E-03   7.13999987       10.7054596    
 Ni  -5.65000018E-03   8.91833019       12.4893503    
 Ni   1.78499997       7.13999987       12.4926300    
 Ni   1.78499997       8.91569042       10.6996803    
 Ni  -2.24300008E-02   10.6850500      -0.00000000    
 Ni  -3.51799987E-02   12.4598198       1.82018006    
 Ni   1.78499997       10.6850500       1.80743003    
 Ni   1.78499997       12.3672199      -0.00000000    
 Ni  -6.83999993E-03   10.6964598       3.58353996    
 Ni  -5.65000018E-03   12.4893503       5.36167002    
 Ni   1.78499997       10.6996803       5.36430979    
 Ni   1.78499997       12.4725704       3.59494996    
 Ni  -3.12000001E-03   10.7054596       7.13999987    
 Ni  -5.65000018E-03   12.4893503       8.91833019    
 Ni   1.78499997       10.6996803       8.91569042    
 Ni   1.78499997       12.4926300       7.13999987    
 Ni  -6.83999993E-03   10.6964598       10.6964598    
 Ni  -3.51799987E-02   12.4598198       12.4598198    
 Ni   1.78499997       10.6850500       12.4725704    
 Ni   1.78499997       12.4725704       10.6850500    
 Ni   3.69777989       0.00000000      -0.00000000    
 Ni   3.60518003       1.82018006       1.82018006    
 Ni   5.37995005       0.00000000       1.80743003    
 Ni   5.37995005       1.80743003      -0.00000000    
 Ni   3.59243011       0.00000000       3.59494996    
 Ni   3.57564998       1.79065001       5.36167002    
 Ni   5.36532021       0.00000000       5.36430979    
 Ni   5.36853981       1.79183996       3.58353996    
 Ni   3.57237005       0.00000000       7.13999987    
 Ni   3.57564998       1.79065001       8.91833019    
 Ni   5.36532021       0.00000000       8.91569042    
 Ni   5.35953999       1.78812003       7.13999987    
 Ni   3.59243011       0.00000000       10.6850500    
 Ni   3.60518003       1.82018006       12.4598198    
 Ni   5.37995005       0.00000000       12.4725704    
 Ni   5.36853981       1.79183996       10.6964598    
 Ni   3.59243011       3.59494996      -0.00000000    
 Ni   3.57564998       5.36167002       1.79065001    
 Ni   5.36853981       3.58353996       1.79183996    
 Ni   5.36532021       5.36430979      -0.00000000    
 Ni   3.57683992       3.58353996       3.58353996    
 Ni   3.57382011       5.36002016       5.36002016    
 Ni   5.36116982       3.57616997       5.36064005    
 Ni   5.36116982       5.36064005       3.57616997    
 Ni   3.57312012       3.57453990       7.13999987    
 Ni   3.57382011       5.36002016       8.91998005    
 Ni   5.36116982       3.57616997       8.91936016    
 Ni   5.35890007       5.35809994       7.13999987    
 Ni   3.57683992       3.58353996       10.6964598    
 Ni   3.57564998       5.36167002       12.4893503    
 Ni   5.36853981       3.58353996       12.4881601    
 Ni   5.36116982       5.36064005       10.7038298    
 Ni   3.57237005       7.13999987      -0.00000000    
 Ni   3.57564998       8.91833019       1.79065001    
 Ni   5.35953999       7.13999987       1.78812003    
 Ni   5.36532021       8.91569042      -0.00000000    
 Ni   3.57312012       7.13999987       3.57453990    
 Ni   3.57382011       8.91998005       5.36002016    
 Ni   5.35890007       7.13999987       5.35809994    
 Ni   5.36116982       8.91936016       3.57616997    
 Ni   3.57350993       7.13999987       7.13999987    
 Ni   3.57382011       8.91998005       8.91998005    
 Ni   5.35890007       7.13999987       8.92189980    
 Ni   5.35890007       8.92189980       7.13999987    
 Ni   3.57312012       7.13999987       10.7054596    
 Ni   3.57564998       8.91833019       12.4893503    
 Ni   5.35953999       7.13999987       12.4918804    
 Ni   5.36116982       8.91936016       10.7038298    
 Ni   3.59243011       10.6850500      -0.00000000    
 Ni   3.60518003       12.4598198       1.82018006    
 Ni   5.36853981       10.6964598       1.79183996    
 Ni   5.37995005       12.4725704      -0.00000000    
 Ni   3.57683992       10.6964598       3.58353996    
 Ni   3.57564998       12.4893503       5.36167002    
 Ni   5.36116982       10.7038298       5.36064005    
 Ni   5.36853981       12.4881601       3.58353996    
 Ni   3.57312012       10.7054596       7.13999987    
 Ni   3.57564998       12.4893503       8.91833019    
 Ni   5.36116982       10.7038298       8.91936016    
 Ni   5.35953999       12.4918804       7.13999987    
 Ni   3.57683992       10.6964598       10.6964598    
 Ni   3.60518003       12.4598198       12.4598198    
 Ni   5.36853981       10.6964598       12.4881601    
 Ni   5.36853981       12.4881601       10.6964598    
 Ni   7.14256001       0.00000000      -0.00000000    
 Ni   7.14666986       1.79065001       1.79065001    
 Ni   8.92500019       0.00000000       1.78736997    
 Ni   8.92500019       1.78736997      -0.00000000    
 Ni   7.14931011       0.00000000       3.58031988    
 Ni   7.14502001       1.78882003       5.36002016    
 Ni   8.92500019       0.00000000       5.36065006    
 Ni   8.92500019       1.78812003       3.57453990    
 Ni   7.14564991       0.00000000       7.13999987    
 Ni   7.14502001       1.78882003       8.91998005    
 Ni   8.92500019       0.00000000       8.91934967    
 Ni   8.92500019       1.78850996       7.13999987    
 Ni   7.14931011       0.00000000       10.6996803    
 Ni   7.14666986       1.79065001       12.4893503    
 Ni   8.92500019       0.00000000       12.4926300    
 Ni   8.92500019       1.78812003       10.7054596    
 Ni   7.14931011       3.58031988      -0.00000000    
 Ni   7.14502001       5.36002016       1.78882003    
 Ni   8.92500019       3.57453990       1.78812003    
 Ni   8.92500019       5.36065006      -0.00000000    
 Ni   7.14563990       3.57616997       3.57616997    
 Ni   7.14355993       5.35856009       5.35856009    
 Ni   8.92500019       3.57389998       5.35809994    
 Ni   8.92500019       5.35809994       3.57389998    
 Ni   7.14309978       3.57389998       7.13999987    
 Ni   7.14355993       5.35856009       8.92144012    
 Ni   8.92500019       3.57389998       8.92189980    
 Ni   8.92500019       5.35721016       7.13999987    
 Ni   7.14563990       3.57616997       10.7038298    
 Ni   7.14502001       5.36002016       12.4911804    
 Ni   8.92500019       3.57453990       12.4918804    
 Ni   8.92500019       5.35809994       10.7061005    
 Ni   7.14564991       7.13999987      -0.00000000    
 Ni   7.14502001       8.91998005       1.78882003    
 Ni   8.92500019       7.13999987       1.78850996    
 Ni   8.92500019       8.91934967      -0.00000000    
 Ni   7.14309978       7.13999987       3.57389998    
 Ni   7.14355993       8.92144012       5.35856009    
 Ni   8.92500019       7.13999987       5.35721016    
 Ni   8.92500019       8.92189980       3.57389998    
 Ni   7.14221001       7.13999987       7.13999987    
 Ni   7.14355993       8.92144012       8.92144012    
 Ni   8.92500019       7.13999987       8.92278957    
 Ni   8.92500019       8.92278957       7.13999987    
 Ni   7.14309978       7.13999987       10.7061005    
 Ni   7.14502001       8.91998005       12.4911804    
 Ni   8.92500019       7.13999987       12.4914904    
 Ni   8.92500019       8.92189980       10.7061005    
 Ni   7.14931011       10.6996803      -0.00000000    
 Ni   7.14666986       12.4893503       1.79065001    
 Ni   8.92500019       10.7054596       1.78812003    
 Ni   8.92500019       12.4926300      -0.00000000    
 Ni   7.14563990       10.7038298       3.57616997    
 Ni   7.14502001       12.4911804       5.36002016    
 Ni   8.92500019       10.7061005       5.35809994    
 Ni   8.92500019       12.4918804       3.57453990    
 Ni   7.14309978       10.7061005       7.13999987    
 Ni   7.14502001       12.4911804       8.91998005    
 Ni   8.92500019       10.7061005       8.92189980    
 Ni   8.92500019       12.4914904       7.13999987    
 Ni   7.14563990       10.7038298       10.7038298    
 Ni   7.14666986       12.4893503       12.4893503    
 Ni   8.92500019       10.7054596       12.4918804    
 Ni   8.92500019       12.4918804       10.7054596    
 Ni   10.7074404       0.00000000      -0.00000000    
 Ni   10.7033300       1.79065001       1.79065001    
 Ni   12.4700499       0.00000000       1.80743003    
 Ni   12.4700499       1.80743003      -0.00000000    
 Ni   10.7006903       0.00000000       3.58031988    
 Ni   10.7049799       1.78882003       5.36002016    
 Ni   12.4846802       0.00000000       5.36430979    
 Ni   12.4814596       1.79183996       3.58353996    
 Ni   10.7043505       0.00000000       7.13999987    
 Ni   10.7049799       1.78882003       8.91998005    
 Ni   12.4846802       0.00000000       8.91569042    
 Ni   12.4904604       1.78812003       7.13999987    
 Ni   10.7006903       0.00000000       10.6996803    
 Ni   10.7033300       1.79065001       12.4893503    
 Ni   12.4700499       0.00000000       12.4725704    
 Ni   12.4814596       1.79183996       10.6964598    
 Ni   10.7006903       3.58031988      -0.00000000    
 Ni   10.7049799       5.36002016       1.78882003    
 Ni   12.4814596       3.58353996       1.79183996    
 Ni   12.4846802       5.36430979      -0.00000000    
 Ni   10.7043600       3.57616997       3.57616997    
 Ni   10.7064400       5.35856009       5.35856009    
 Ni   12.4888296       3.57616997       5.36064005    
 Ni   12.4888296       5.36064005       3.57616997    
 Ni   10.7068996       3.57389998       7.13999987    
 Ni   10.7064400       5.35856009       8.92144012    
 Ni   12.4888296       3.57616997       8.91936016    
 Ni   12.4911003       5.35809994       7.13999987    
 Ni   10.7043600       3.57616997       10.7038298    
 Ni   10.7049799       5.36002016       12.4911804    
 Ni   12.4814596       3.58353996       12.4881601    
 Ni   12.4888296       5.36064005       10.7038298    
 Ni   10.7043505       7.13999987      -0.00000000    
 Ni   10.7049799       8.91998005       1.78882003    
 Ni   12.4904604       7.13999987       1.78812003    
 Ni   12.4846802       8.91569042      -0.00000000    
 Ni   10.7068996       7.13999987       3.57389998    
 Ni   10.7064400       8.92144012       5.35856009    
 Ni   12.4911003       7.13999987       5.35809994    
 Ni   12.4888296       8.91936016       3.57616997    
 Ni   10.7077904       7.13999987       7.13999987    
 Ni   10.7064400       8.92144012       8.92144012    
 Ni   12.4911003       7.13999987       8.92189980    
 Ni   12.4911003       8.92189980       7.13999987    
 Ni   10.7068996       7.13999987       10.7061005    
 Ni   10.7049799       8.91998005       12.4911804    
 Ni   12.4904604       7.13999987       12.4918804    
 Ni   12.4888296       8.91936016       10.7038298    
 Ni   10.7006903       10.6996803      -0.00000000    
 Ni   10.7033300       12.4893503       1.79065001    
 Ni   12.4814596       10.6964598       1.79183996    
 Ni   12.4700499       12.4725704      -0.00000000    
 Ni   10.7043600       10.7038298       3.57616997    
 Ni   10.7049799       12.4911804       5.36002016    
 Ni   12.4888296       10.7038298       5.36064005    
 Ni   12.4814596       12.4881601       3.58353996    
 Ni   10.7068996       10.7061005       7.13999987    
 Ni   10.7049799       12.4911804       8.91998005    
 Ni   12.4888296       10.7038298       8.91936016    
 Ni   12.4904604       12.4918804       7.13999987    
 Ni   10.7043600       10.7038298       10.7038298    
 Ni   10.7033300       12.4893503       12.4893503    
 Ni   12.4814596       10.6964598       12.4881601    
 Ni   12.4814596       12.4881601       10.6964598    
 O    1.78499997       0.00000000      -0.00000000    
