         259
 Energy:  -1434.2111760000000      en  -1325.4191460000000      edisp  -108.79203000000000     
 X   0.00000000       0.00000000       0.00000000    
 X   14.5000000       0.00000000       0.00000000    
 X   0.00000000       14.5000000       0.00000000    
 X   0.00000000       0.00000000       14.5000000    
 X   14.5000000       14.5000000       0.00000000    
 X   14.5000000       0.00000000       14.5000000    
 X   0.00000000       14.5000000       14.5000000    
 X   14.5000000       14.5000000       14.5000000    
 Ni   1.53999997E-03  -1.04999996E-03   7.80000002E-04
 Ni  -3.59000009E-03  -3.07999994E-03   2.89771008    
 Ni  -8.37999955E-03  -4.66000009E-03   5.80000019    
 Ni  -3.59000009E-03  -3.07999994E-03   8.70228958    
 Ni   1.53999997E-03  -1.04999996E-03   11.5992203    
 Ni  -2.12999992E-03   2.90000010      -1.46000006E-03
 Ni  -3.89999989E-03   2.90000010       2.90392995    
 Ni  -5.28999977E-03   2.90000010       5.80000019    
 Ni  -3.89999989E-03   2.90000010       8.69606972    
 Ni  -2.12999992E-03   2.90000010       11.6014605    
 Ni   1.53999997E-03   5.80105019       7.80000002E-04
 Ni  -3.59000009E-03   5.80308008       2.89771008    
 Ni  -8.37999955E-03   5.80465984       5.80000019    
 Ni  -3.59000009E-03   5.80308008       8.70228958    
 Ni   1.53999997E-03   5.80105019       11.5992203    
 Ni   1.12999999E-03   8.69886971      -3.12000001E-03
 Ni  -1.67999999E-03   8.70168018       2.89748001    
 Ni  -4.08999994E-03   8.70409012       5.80000019    
 Ni  -1.67999999E-03   8.70168018       8.70252037    
 Ni   1.12999999E-03   8.69886971       11.6031199    
 Ni   1.12999999E-03   11.6011295      -3.12000001E-03
 Ni  -1.67999999E-03   11.5983200       2.89748001    
 Ni  -4.08999994E-03   11.5959101       5.80000019    
 Ni  -1.67999999E-03   11.5983200       8.70252037    
 Ni   1.12999999E-03   11.6011295       11.6031199    
 Ni   2.90265989       2.66000000E-03   3.99000011E-03
 Ni   2.88188004      -1.81200001E-02   2.92156005    
 Ni   2.88995004      -1.00499997E-02   5.80000019    
 Ni   2.88188004      -1.81200001E-02   8.67844009    
 Ni   2.90265989       2.66000000E-03   11.5960102    
 Ni   2.89742994       2.90000010      -2.60000001E-04
 Ni   2.87118006       2.90000010       2.92411995    
 Ni   2.88320994       2.90000010       5.80000019    
 Ni   2.87118006       2.90000010       8.67588043    
 Ni   2.89742994       2.90000010       11.6002598    
 Ni   2.90265989       5.79733992       3.99000011E-03
 Ni   2.88188004       5.81812000       2.92156005    
 Ni   2.88995004       5.81005001       5.80000019    
 Ni   2.88188004       5.81812000       8.67844009    
 Ni   2.90265989       5.79733992       11.5960102    
 Ni   2.89895010       8.69845963       7.80000002E-04
 Ni   2.89691997       8.70359039       2.89771008    
 Ni   2.89533997       8.70837975       5.80000019    
 Ni   2.89691997       8.70359039       8.70228958    
 Ni   2.89895010       8.69845963       11.5992203    
 Ni   2.89895010       11.6015396       7.80000002E-04
 Ni   2.89691997       11.5964098       2.89771008    
 Ni   2.89533997       11.5916204       5.80000019    
 Ni   2.89691997       11.5964098       8.70228958    
 Ni   2.89895010       11.6015396       11.5992203    
 Ni   5.80000019      -2.57000001E-03  -2.60000001E-04
 Ni   5.80000019      -2.88200006E-02   2.92411995    
 Ni   5.80000019      -1.67900007E-02   5.80000019    
 Ni   5.80000019      -2.88200006E-02   8.67588043    
 Ni   5.80000019      -2.57000001E-03   11.6002598    
 Ni   5.80000019       2.90000010      0.460220009    
 Ni   5.80000019       2.90000010       2.95228004    
 Ni   5.80000019       2.90000010       5.80000019    
 Ni   5.80000019       2.90000010       8.64772034    
 Ni   5.80000019       2.90000010       11.1397800    
 Ni   5.80000019       5.80256987      -2.60000001E-04
 Ni   5.80000019       5.82882023       2.92411995    
 Ni   5.80000019       5.81679010       5.80000019    
 Ni   5.80000019       5.82882023       8.67588043    
 Ni   5.80000019       5.80256987       11.6002598    
 Ni   5.80000019       8.70213032      -1.46000006E-03
 Ni   5.80000019       8.70390034       2.90392995    
 Ni   5.80000019       8.70528984       5.80000019    
 Ni   5.80000019       8.70390034       8.69606972    
 Ni   5.80000019       8.70213032       11.6014605    
 Ni   5.80000019       11.5978699      -1.46000006E-03
 Ni   5.80000019       11.5960999       2.90392995    
 Ni   5.80000019       11.5947104       5.80000019    
 Ni   5.80000019       11.5960999       8.69606972    
 Ni   5.80000019       11.5978699       11.6014605    
 Ni   8.69734001       2.66000000E-03   3.99000011E-03
 Ni   8.71811962      -1.81200001E-02   2.92156005    
 Ni   8.71004963      -1.00499997E-02   5.80000019    
 Ni   8.71811962      -1.81200001E-02   8.67844009    
 Ni   8.69734001       2.66000000E-03   11.5960102    
 Ni   8.70256996       2.90000010      -2.60000001E-04
 Ni   8.72881985       2.90000010       2.92411995    
 Ni   8.71679020       2.90000010       5.80000019    
 Ni   8.72881985       2.90000010       8.67588043    
 Ni   8.70256996       2.90000010       11.6002598    
 Ni   8.69734001       5.79733992       3.99000011E-03
 Ni   8.71811962       5.81812000       2.92156005    
 Ni   8.71004963       5.81005001       5.80000019    
 Ni   8.71811962       5.81812000       8.67844009    
 Ni   8.69734001       5.79733992       11.5960102    
 Ni   8.70104980       8.69845963       7.80000002E-04
 Ni   8.70308018       8.70359039       2.89771008    
 Ni   8.70466042       8.70837975       5.80000019    
 Ni   8.70308018       8.70359039       8.70228958    
 Ni   8.70104980       8.69845963       11.5992203    
 Ni   8.70104980       11.6015396       7.80000002E-04
 Ni   8.70308018       11.5964098       2.89771008    
 Ni   8.70466042       11.5916204       5.80000019    
 Ni   8.70308018       11.5964098       8.70228958    
 Ni   8.70104980       11.6015396       11.5992203    
 Ni   11.5984602      -1.04999996E-03   7.80000002E-04
 Ni   11.6035900      -3.07999994E-03   2.89771008    
 Ni   11.6083803      -4.66000009E-03   5.80000019    
 Ni   11.6035900      -3.07999994E-03   8.70228958    
 Ni   11.5984602      -1.04999996E-03   11.5992203    
 Ni   11.6021299       2.90000010      -1.46000006E-03
 Ni   11.6039000       2.90000010       2.90392995    
 Ni   11.6052904       2.90000010       5.80000019    
 Ni   11.6039000       2.90000010       8.69606972    
 Ni   11.6021299       2.90000010       11.6014605    
 Ni   11.5984602       5.80105019       7.80000002E-04
 Ni   11.6035900       5.80308008       2.89771008    
 Ni   11.6083803       5.80465984       5.80000019    
 Ni   11.6035900       5.80308008       8.70228958    
 Ni   11.5984602       5.80105019       11.5992203    
 Ni   11.5988703       8.69886971      -3.12000001E-03
 Ni   11.6016798       8.70168018       2.89748001    
 Ni   11.6040897       8.70409012       5.80000019    
 Ni   11.6016798       8.70168018       8.70252037    
 Ni   11.5988703       8.69886971       11.6031199    
 Ni   11.5988703       11.6011295      -3.12000001E-03
 Ni   11.6016798       11.5983200       2.89748001    
 Ni   11.6040897       11.5959101       5.80000019    
 Ni   11.6016798       11.5983200       8.70252037    
 Ni   11.5988703       11.6011295       11.6031199    
 Al   1.44257998       1.44893003       1.45527995    
 Al   1.43903995       1.44382000       4.35605001    
 Al   1.43903995       1.44382000       7.24394989    
 Al   1.44257998       1.44893003       10.1447201    
 Al   1.44728005       1.45218003       13.0500002    
 Al   1.44257998       4.35106993       1.45527995    
 Al   1.43903995       4.35618019       4.35605001    
 Al   1.43903995       4.35618019       7.24394989    
 Al   1.44257998       4.35106993       10.1447201    
 Al   1.44728005       4.34781981       13.0500002    
 Al   1.44686997       7.25312996       1.45044005    
 Al   1.43952000       7.26047993       4.35345984    
 Al   1.43952000       7.26047993       7.24654007    
 Al   1.44686997       7.25312996       10.1495600    
 Al   1.45473003       7.24526978       13.0500002    
 Al   1.44691002       10.1499996       1.44691002    
 Al   1.44540000       10.1499996       4.34679985    
 Al   1.44540000       10.1499996       7.25320005    
 Al   1.44691002       10.1499996       10.1530895    
 Al   1.45185995       10.1499996       13.0500002    
 Al   1.44686997       13.0468702       1.45044005    
 Al   1.43952000       13.0395203       4.35345984    
 Al   1.43952000       13.0395203       7.24654007    
 Al   1.44686997       13.0468702       10.1495600    
 Al   1.45473003       13.0547304       13.0500002    
 Al   4.30417013       1.40417004       1.51590002    
 Al   4.34235001       1.44235003       4.36591005    
 Al   4.34235001       1.44235003       7.23408985    
 Al   4.30417013       1.40417004       10.0840998    
 Al   4.35117006       1.45116997       13.0500002    
 Al   4.30417013       4.39583015       1.51590002    
 Al   4.34235001       4.35764980       4.36591005    
 Al   4.34235001       4.35764980       7.23408985    
 Al   4.30417013       4.39583015       10.0840998    
 Al   4.35117006       4.34883022       13.0500002    
 Al   4.34892988       7.25742006       1.45527995    
 Al   4.34382010       7.26096010       4.35605001    
 Al   4.34382010       7.26096010       7.24394989    
 Al   4.34892988       7.25742006       10.1447201    
 Al   4.35218000       7.25271988       13.0500002    
 Al   4.34979010       10.1499996       1.45056999    
 Al   4.34802008       10.1499996       4.34862995    
 Al   4.34802008       10.1499996       7.25136995    
 Al   4.34979010       10.1499996       10.1494303    
 Al   4.34621000       10.1499996       13.0500002    
 Al   4.34892988       13.0425797       1.45527995    
 Al   4.34382010       13.0390396       4.35605001    
 Al   4.34382010       13.0390396       7.24394989    
 Al   4.34892988       13.0425797       10.1447201    
 Al   4.35218000       13.0472803       13.0500002    
 Al   7.29582977       1.40417004       1.51590002    
 Al   7.25764990       1.44235003       4.36591005    
 Al   7.25764990       1.44235003       7.23408985    
 Al   7.29582977       1.40417004       10.0840998    
 Al   7.24882984       1.45116997       13.0500002    
 Al   7.29582977       4.39583015       1.51590002    
 Al   7.25764990       4.35764980       4.36591005    
 Al   7.25764990       4.35764980       7.23408985    
 Al   7.29582977       4.39583015       10.0840998    
 Al   7.24882984       4.34883022       13.0500002    
 Al   7.25107002       7.25742006       1.45527995    
 Al   7.25617981       7.26096010       4.35605001    
 Al   7.25617981       7.26096010       7.24394989    
 Al   7.25107002       7.25742006       10.1447201    
 Al   7.24781990       7.25271988       13.0500002    
 Al   7.25020981       10.1499996       1.45056999    
 Al   7.25197983       10.1499996       4.34862995    
 Al   7.25197983       10.1499996       7.25136995    
 Al   7.25020981       10.1499996       10.1494303    
 Al   7.25378990       10.1499996       13.0500002    
 Al   7.25107002       13.0425797       1.45527995    
 Al   7.25617981       13.0390396       4.35605001    
 Al   7.25617981       13.0390396       7.24394989    
 Al   7.25107002       13.0425797       10.1447201    
 Al   7.24781990       13.0472803       13.0500002    
 Al   10.1574202       1.44893003       1.45527995    
 Al   10.1609602       1.44382000       4.35605001    
 Al   10.1609602       1.44382000       7.24394989    
 Al   10.1574202       1.44893003       10.1447201    
 Al   10.1527205       1.45218003       13.0500002    
 Al   10.1574202       4.35106993       1.45527995    
 Al   10.1609602       4.35618019       4.35605001    
 Al   10.1609602       4.35618019       7.24394989    
 Al   10.1574202       4.35106993       10.1447201    
 Al   10.1527205       4.34781981       13.0500002    
 Al   10.1531296       7.25312996       1.45044005    
 Al   10.1604795       7.26047993       4.35345984    
 Al   10.1604795       7.26047993       7.24654007    
 Al   10.1531296       7.25312996       10.1495600    
 Al   10.1452703       7.24526978       13.0500002    
 Al   10.1530895       10.1499996       1.44691002    
 Al   10.1546001       10.1499996       4.34679985    
 Al   10.1546001       10.1499996       7.25320005    
 Al   10.1530895       10.1499996       10.1530895    
 Al   10.1481400       10.1499996       13.0500002    
 Al   10.1531296       13.0468702       1.45044005    
 Al   10.1604795       13.0395203       4.35345984    
 Al   10.1604795       13.0395203       7.24654007    
 Al   10.1531296       13.0468702       10.1495600    
 Al   10.1452703       13.0547304       13.0500002    
 Al   13.0500002       1.44979000       1.45056999    
 Al   13.0500002       1.44801998       4.34862995    
 Al   13.0500002       1.44801998       7.25136995    
 Al   13.0500002       1.44979000       10.1494303    
 Al   13.0500002       1.44621003       13.0500002    
 Al   13.0500002       4.35021019       1.45056999    
 Al   13.0500002       4.35198021       4.34862995    
 Al   13.0500002       4.35198021       7.25136995    
 Al   13.0500002       4.35021019       10.1494303    
 Al   13.0500002       4.35378981       13.0500002    
 Al   13.0500002       7.25308990       1.44691002    
 Al   13.0500002       7.25460005       4.34679985    
 Al   13.0500002       7.25460005       7.25320005    
 Al   13.0500002       7.25308990       10.1530895    
 Al   13.0500002       7.24813986       13.0500002    
 Al   13.0500002       10.1499996       1.44602001    
 Al   13.0500002       10.1499996       4.34520006    
 Al   13.0500002       10.1499996       7.25479984    
 Al   13.0500002       10.1499996       10.1539803    
 Al   13.0500002       10.1499996       13.0500002    
 Al   13.0500002       13.0469103       1.44691002    
 Al   13.0500002       13.0453997       4.34679985    
 Al   13.0500002       13.0453997       7.25320005    
 Al   13.0500002       13.0469103       10.1530895    
 Al   13.0500002       13.0518599       13.0500002    
 O    5.80000019       2.90000010       13.0500002    
