         324
 Energy:  -1472.6895995000000     
 X   0.00000000       0.00000000       0.00000000    
 X   15.1462221       0.00000000       0.00000000    
 X   7.57311106       13.1170130       0.00000000    
 X   0.00000000       0.00000000       36.4000015    
 X   22.7193336       13.1170130       0.00000000    
 X   15.1462221       0.00000000       36.4000015    
 X   7.57311106       13.1170130       36.4000015    
 X   22.7193336       13.1170130       36.4000015    
 Ni   10.0985203       5.83037996       2.93273997    
 Ni   12.6228399       10.2015495       2.93648005    
 Ni   7.57311010       1.45624995       2.93273997    
 Ni   15.1462202       5.83092022       2.93648005    
 Ni   17.6696091       10.2015495       2.93648005    
 Ni   12.6197596       1.45864999       2.93021011    
 Ni   5.04770994       5.83037996       2.93273997    
 Ni   7.57311010       10.1997099       2.93021011    
 Ni   2.52645993       1.45864999       2.93021011    
 Ni   12.6240396       7.28848982       4.90855980    
 Ni   15.1462202       11.6570396       4.90855980    
 Ni   10.0988798       2.91407990       4.91111994    
 Ni   17.6683998       7.28848982       4.90855980    
 Ni   20.1929893       11.6584301       4.91251993    
 Ni   15.1462202       2.91716003       4.91251993    
 Ni   7.57311010       7.28883982       4.91111994    
 Ni   10.0994501       11.6584301       4.91251993    
 Ni   5.04733992       2.91407990       4.91111994    
 Ni   15.1462202       8.74468040       6.97077990    
 Ni   10.0961304      -1.52000005E-03   6.97485018    
 Ni   12.6224899       4.37426996       6.97485018    
 Ni   5.04674006       8.74425983       6.97485018    
 Ni   0.00000000      -0.00000000       6.97696018    
 Ni   2.52373004       4.37426996       6.97485018    
 Ni   10.0994797       8.74425983       6.97485018    
 Ni   5.05009985      -1.52000005E-03   6.97485018    
 Ni   7.57311010       4.37234020       6.97774982    
 Ni   17.6733799       10.2037296       9.04205990    
 Ni   12.6232100       1.45666003       9.03260040    
 Ni   15.1462202       5.82657003       9.04205990    
 Ni   7.57311010       10.2036896       9.03260040    
 Ni   2.52301002       1.45666003       9.03260040    
 Ni   5.05003977       5.82903004       9.04477978    
 Ni   12.6190701       10.2037296       9.04205990    
 Ni   7.57311010       1.45895004       9.04477978    
 Ni   10.0961800       5.82903004       9.04477978    
 Ni   20.1935291       11.6587400       11.0399599    
 Ni   15.1462202       2.91653991       11.0399599    
 Ni   17.6707497       7.28713989       11.0467701    
 Ni   10.0989103       11.6587400       11.0399599    
 Ni   5.03552008       2.90725994       11.0515003    
 Ni   7.57311010       7.30249977       11.0515003    
 Ni   15.1462202       11.6597500       11.0467701    
 Ni   10.1107101       2.90725994       11.0515003    
 Ni   12.6216898       7.28713989       11.0467701    
 Ni   0.00000000      -0.00000000       13.0510702    
 Ni   2.52640009       4.36939001       13.0312300    
 Ni   5.05230999       8.74438953       13.0312300    
 Ni   5.04720020       3.23999999E-03   13.0312300    
 Ni   7.57311010       4.37234020       13.0233202    
 Ni   10.0939102       8.74438953       13.0312300    
 Ni   10.0990200       3.23999999E-03   13.0312300    
 Ni   12.6198196       4.36939001       13.0312300    
 Ni   15.1462202       8.74468040       13.0782003    
 Ni   2.61361003       1.50897002       15.1364403    
 Ni   5.18361998       5.75191021       15.0739698    
 Ni   7.57311010       10.0990696       15.1364403    
 Ni   7.57311010       1.61319005       15.0739698    
 Ni   9.96261024       5.75191021       15.0739698    
 Ni   12.6997204       10.1571703       14.9128599    
 Ni   12.5326099       1.50897002       15.1364403    
 Ni   15.1462202       5.91969013       14.9128599    
 Ni   17.5927296       10.1571703       14.9128599    
 Ni   6.30993986       3.64304996       2.93648005    
 Ni   8.83320999       8.01716042       2.93021011    
 Ni   11.3596697       12.3894300       2.93648005    
 Ni   11.3596697       3.64120007       2.93021011    
 Ni   13.8861198       8.01716042       2.93021011    
 Ni   16.4073696       12.3888903       2.93273997    
 Ni   16.4093895       3.64304996       2.93648005    
 Ni   18.9327793       8.01476002       2.93273997    
 Ni   21.4581795       12.3888903       2.93273997    
 Ni   8.83333015       5.09991980       4.91251993    
 Ni   11.3596697       9.47566986       4.91251993    
 Ni   6.30874014      0.729990005       4.90855980    
 Ni   13.8860102       5.09991980       4.91251993    
 Ni   16.4070091       9.47259045       4.91111994    
 Ni   11.3596697      0.730340004       4.91111994    
 Ni   3.78656006       5.09852982       4.90855980    
 Ni   6.31232023       9.47259045       4.91111994    
 Ni   1.26437998      0.729990005       4.90855980    
 Ni   11.3596697       6.55850983       6.97696018    
 Ni   13.8833904       10.9327803       6.97485018    
 Ni   8.83329964       2.18576002       6.97485018    
 Ni   16.4097595       6.55698013       6.97485018    
 Ni   18.9327793       10.9308395       6.97774982    
 Ni   13.8860302       2.18576002       6.97485018    
 Ni   6.30956984       6.55698013       6.97485018    
 Ni   8.83594036       10.9327803       6.97485018    
 Ni   3.78656006       2.18617010       6.97077990    
 Ni   13.8826799       8.01517010       9.03260040    
 Ni   16.4097099       12.3875399       9.04477978    
 Ni   11.3596697       3.64517999       9.03260040    
 Ni   18.9327793       8.01745987       9.04477978    
 Ni   21.4558392       12.3875399       9.04477978    
 Ni   16.4056206       3.64522004       9.04205990    
 Ni   8.83664989       8.01517010       9.03260040    
 Ni   11.3596697       12.3850698       9.04205990    
 Ni   6.31371021       3.64522004       9.04205990    
 Ni   16.3951797       9.46576023       11.0515003    
 Ni   11.3596697      0.743990004       11.0515003    
 Ni   13.8854704       5.10023022       11.0399599    
 Ni   6.32415009       9.46576023       11.0515003    
 Ni   1.26201999      0.728630006       11.0467701    
 Ni   3.78656006       5.10125017       11.0467701    
 Ni   11.3596697       9.47504997       11.0399599    
 Ni   6.31108999      0.728630006       11.0467701    
 Ni   8.83386993       5.10023022       11.0399599    
 Ni   18.9327793       10.9308395       13.0233202    
 Ni   13.8804703       2.18587995       13.0312300    
 Ni   16.4068699       6.56173992       13.0312300    
 Ni   8.83325958       10.9279003       13.0312300    
 Ni   3.78656006       2.18617010       13.0782003    
 Ni   6.31245995       6.56173992       13.0312300    
 Ni   13.8860703       10.9279003       13.0312300    
 Ni   8.83887005       2.18587995       13.0312300    
 Ni   11.3596697       6.55850983       13.0510702    
 Ni   21.3222694       12.3104200       15.0739698    
 Ni   16.4862709       3.59865999       14.9128599    
 Ni   18.9327793       8.17168999       15.0739698    
 Ni   11.3596697       12.4782000       14.9128599    
 Ni   6.23305988       3.59865999       14.9128599    
 Ni   8.74604988       8.06748009       15.1364403    
 Ni   16.5432796       12.3104200       15.0739698    
 Ni   11.3596697       3.54057002       15.1364403    
 Ni   13.9732800       8.06748009       15.1364403    
 Ni   7.57311010       5.83092022       2.93648005    
 Ni   10.0965004       10.2015495       2.93648005    
 Ni   5.04664993       1.45864999       2.93021011    
 Ni   12.6208200       5.83037996       2.93273997    
 Ni   15.1462202       10.1997099       2.93021011    
 Ni   10.0995703       1.45864999       2.93021011    
 Ni   17.6716309       5.83037996       2.93273997    
 Ni   20.1959496       10.2015495       2.93648005    
 Ni   15.1462202       1.45624995       2.93273997    
 Ni   10.0952902       7.28848982       4.90855980    
 Ni   12.6198797       11.6584301       4.91251993    
 Ni   7.57311010       2.91716003       4.91251993    
 Ni   15.1462202       7.28883982       4.91111994    
 Ni   17.6725597       11.6584301       4.91251993    
 Ni   12.6204500       2.91407990       4.91111994    
 Ni   5.05093002       7.28848982       4.90855980    
 Ni   7.57311010       11.6570396       4.90855980    
 Ni   2.52576995       2.91407990       4.91111994    
 Ni   12.6198502       8.74425983       6.97485018    
 Ni   7.57311010      -0.00000000       6.97696018    
 Ni   10.0968399       4.37426996       6.97485018    
 Ni   17.6725903       8.74425983       6.97485018    
 Ni   12.6232100      -1.52000005E-03   6.97485018    
 Ni   15.1462202       4.37234020       6.97774982    
 Ni   7.57311010       8.74468040       6.97077990    
 Ni   2.52301002      -1.52000005E-03   6.97485018    
 Ni   5.04937983       4.37426996       6.97485018    
 Ni   15.1462202       10.2036896       9.03260040    
 Ni   10.0961304       1.45666003       9.03260040    
 Ni   12.6231604       5.82903004       9.04477978    
 Ni   20.1921806       10.2037296       9.04205990    
 Ni   15.1462202       1.45895004       9.04477978    
 Ni   17.6692905       5.82903004       9.04477978    
 Ni   10.1002703       10.2037296       9.04205990    
 Ni   5.05009985       1.45666003       9.03260040    
 Ni   7.57311010       5.82657003       9.04205990    
 Ni   17.6720200       11.6587400       11.0399599    
 Ni   12.6086302       2.90725994       11.0515003    
 Ni   15.1462202       7.30249977       11.0515003    
 Ni   7.57311010       11.6597500       11.0467701    
 Ni   2.53759003       2.90725994       11.0515003    
 Ni   5.04858017       7.28713989       11.0467701    
 Ni   12.6204205       11.6587400       11.0399599    
 Ni   7.57311010       2.91653991       11.0399599    
 Ni   10.0976400       7.28713989       11.0467701    
 Ni   12.6203098       3.23999999E-03   13.0312300    
 Ni   15.1462202       4.37234020       13.0233202    
 Ni   17.6670208       8.74438953       13.0312300    
 Ni   2.52590990       3.23999999E-03   13.0312300    
 Ni   5.04671001       4.36939001       13.0312300    
 Ni   7.57311010       8.74468040       13.0782003    
 Ni   7.57311010      -0.00000000       13.0510702    
 Ni   10.0995102       4.36939001       13.0312300    
 Ni   12.6254196       8.74438953       13.0312300    
 Ni   15.1462202       1.61319005       15.0739698    
 Ni   17.5357208       5.75191021       15.0739698    
 Ni   20.2728291       10.1571703       14.9128599    
 Ni   4.95949984       1.50897002       15.1364403    
 Ni   7.57311010       5.91969013       14.9128599    
 Ni   10.0196199       10.1571703       14.9128599    
 Ni   10.1867199       1.50897002       15.1364403    
 Ni   12.7567301       5.75191021       15.0739698    
 Ni   15.1462202       10.0990696       15.1364403    
 Ni   8.83627987       3.64304996       2.93648005    
 Ni   11.3596697       8.01476002       2.93273997    
 Ni   13.8850698       12.3888903       2.93273997    
 Ni   13.8830500       3.64304996       2.93648005    
 Ni   16.4063206       8.01716042       2.93021011    
 Ni   18.9327793       12.3894300       2.93648005    
 Ni   3.78656006       3.64120007       2.93021011    
 Ni   6.31301022       8.01716042       2.93021011    
 Ni   8.83425999       12.3888903       2.93273997    
 Ni   11.3596697       5.09852982       4.90855980    
 Ni   13.8854303       9.47259045       4.91111994    
 Ni   8.83749008      0.729990005       4.90855980    
 Ni   16.4064407       5.09991980       4.91251993    
 Ni   18.9327793       9.47566986       4.91251993    
 Ni   13.8818502      0.729990005       4.90855980    
 Ni   6.31289005       5.09991980       4.91251993    
 Ni   8.83390045       9.47259045       4.91111994    
 Ni   3.78656006      0.730340004       4.91111994    
 Ni   13.8826799       6.55698013       6.97485018    
 Ni   16.4090500       10.9327803       6.97485018    
 Ni   11.3596697       2.18617010       6.97077990    
 Ni   3.78656006       6.55850983       6.97696018    
 Ni   6.31027985       10.9327803       6.97485018    
 Ni   1.26019001       2.18576002       6.97485018    
 Ni   8.83664989       6.55698013       6.97485018    
 Ni   11.3596697       10.9308395       6.97774982    
 Ni   6.31292009       2.18576002       6.97485018    
 Ni   16.4097595       8.01517010       9.03260040    
 Ni   18.9327793       12.3850698       9.04205990    
 Ni   13.8868198       3.64522004       9.04205990    
 Ni   6.30956984       8.01517010       9.03260040    
 Ni   8.83660030       12.3875399       9.04477978    
 Ni   3.78656006       3.64517999       9.03260040    
 Ni   11.3596697       8.01745987       9.04477978    
 Ni   13.8827295       12.3875399       9.04477978    
 Ni   8.83250999       3.64522004       9.04205990    
 Ni   18.9327793       9.47504997       11.0399599    
 Ni   13.8842001      0.728630006       11.0467701    
 Ni   16.4069805       5.10023022       11.0399599    
 Ni   8.82207012       9.46576023       11.0515003    
 Ni   3.78656006      0.743990004       11.0515003    
 Ni   6.31235981       5.10023022       11.0399599    
 Ni   13.8972597       9.46576023       11.0515003    
 Ni   8.83512974      0.728630006       11.0467701    
 Ni   11.3596697       5.10125017       11.0467701    
 Ni   6.31296015       10.9279003       13.0312300    
 Ni   1.26575994       2.18587995       13.0312300    
 Ni   3.78656006       6.55850983       13.0510702    
 Ni   11.3596697       10.9308395       13.0233202    
 Ni   6.30736017       2.18587995       13.0312300    
 Ni   8.83376026       6.56173992       13.0312300    
 Ni   16.4063702       10.9279003       13.0312300    
 Ni   11.3596697       2.18617010       13.0782003    
 Ni   13.8855696       6.56173992       13.0312300    
 Ni   8.97017002       12.3104200       15.0739698    
 Ni   3.78656006       3.54057002       15.1364403    
 Ni   6.40016985       8.06748009       15.1364403    
 Ni   13.7491598       12.3104200       15.0739698    
 Ni   8.91316032       3.59865999       14.9128599    
 Ni   11.3596697       8.17168999       15.0739698    
 Ni   18.9327793       12.4782000       14.9128599    
 Ni   13.8061705       3.59865999       14.9128599    
 Ni   16.3191700       8.06748009       15.1364403    
 O    0.00000000      -0.00000000       15.5799103    
 O    1.06084001       1.32761002       17.4736099    
 O    1.22290003       3.66629004       17.3268394    
 O    3.16722989       4.97598982       17.4736099    
 O    3.78656006       6.55850983       15.5799103    
 O    4.84739017       7.88611984       17.4736099    
 O    5.00945997       10.2248001       17.3268394    
 O    6.95379019       11.5344896       17.4736099    
 O    1.68016005      0.254909992       17.4736099    
 O    3.04335999       1.75708997       18.5402393    
 O    3.78656006       3.04432988       18.5402393    
 O    4.40587997       4.97598982       17.4736099    
 O    5.46672010       6.81340981       17.4736099    
 O    6.82991982       8.31558990       18.5402393    
 O    7.57311010       9.60284042       18.5402393    
 O    8.19244003       11.5344896       17.4736099    
 O    3.78656006     -0.774079978       17.3268394    
 O    4.52974987       1.75708997       18.5402393    
 O    6.35021019       3.66629004       17.3268394    
 O    6.48219013       5.00218010       16.7468605    
 O    7.57311010       5.78442001       17.3268394    
 O    8.31630039       8.31558990       18.5402393    
 O    10.1367598       10.2248001       17.3268394    
 O    10.2687502       11.5606899       16.7468605    
 O    5.89295006      0.254909992       17.4736099    
 O    6.51226997       1.32761002       17.4736099    
 O    7.57311010       3.11264992       16.7468605    
 O    8.66403008       5.00218010       16.7468605    
 O    9.67949963       6.81340981       17.4736099    
 O    10.2988300       7.88611984       17.4736099    
 O    11.3596697       9.67115974       16.7468605    
 O    12.4505901       11.5606899       16.7468605    
 O    7.57311010      -0.00000000       15.5799103    
 O    8.63395023       1.32761002       17.4736099    
 O    8.79601002       3.66629004       17.3268394    
 O    10.7403402       4.97598982       17.4736099    
 O    11.3596697       6.55850983       15.5799103    
 O    12.4205103       7.88611984       17.4736099    
 O    12.5825701       10.2248001       17.3268394    
 O    14.5269003       11.5344896       17.4736099    
 O    9.25327969      0.254909992       17.4736099    
 O    10.6164703       1.75708997       18.5402393    
 O    11.3596697       3.04432988       18.5402393    
 O    11.9789896       4.97598982       17.4736099    
 O    13.0398302       6.81340981       17.4736099    
 O    14.4030304       8.31558990       18.5402393    
 O    15.1462202       9.60284042       18.5402393    
 O    15.7655497       11.5344896       17.4736099    
 O    11.3596697     -0.774079978       17.3268394    
 O    12.1028605       1.75708997       18.5402393    
 O    13.9233198       3.66629004       17.3268394    
 O    14.0552998       5.00218010       16.7468605    
 O    15.1462202       5.78442001       17.3268394    
 O    15.8894100       8.31558990       18.5402393    
 O    17.7098694       10.2248001       17.3268394    
 O    17.8418598       11.5606899       16.7468605    
 O    13.4660597      0.254909992       17.4736099    
 O    14.0853796       1.32761002       17.4736099    
 O    15.1462202       3.11264992       16.7468605    
 O    16.2371407       5.00218010       16.7468605    
 O    17.2526093       6.81340981       17.4736099    
 O    17.8719406       7.88611984       17.4736099    
 O    18.9327793       9.67115974       16.7468605    
 O    20.0237007       11.5606899       16.7468605    
