         262
 Energy:  -1426.1059224999999     
 X   0.00000000       0.00000000       0.00000000    
 X   0.00000000      -15.1462221       0.00000000    
 X   0.00000000      -7.57311106      -13.1170130    
 X   29.0000000       0.00000000       0.00000000    
 X   0.00000000      -22.7193336      -13.1170130    
 X   29.0000000      -15.1462221       0.00000000    
 X   29.0000000      -7.57311106      -13.1170130    
 X   29.0000000      -22.7193336      -13.1170130    
 Ni   15.1072197      -11.3125200      -7.97289991    
 Ni   14.9325199      -12.6876297      -5.80803013    
 Ni   14.9645796      -13.9010000      -3.62953997    
 Ni   14.9651899      -15.1497803      -1.46111000    
 Ni   14.9685898      -16.4160309      -3.64049006    
 Ni   14.9638796      -17.6740398      -5.82599020    
 Ni   14.9595404      -16.4206696      -8.01782036    
 Ni   14.9589500      -15.1602201      -10.2130098    
 Ni   14.9615898      -13.8949604      -12.4023600    
 Ni   14.9629602      -16.4122696      -12.3882704    
 Ni   14.9628496      -18.9285202      -12.3865900    
 Ni   14.9583101      -20.1717606      -10.2179203    
 Ni   14.9592304      -18.9160595      -8.01714039    
 Ni   12.9747601      -17.6718903      -8.75216961    
 Ni   12.9762001      -16.4160709      -10.9339895    
 Ni   11.0024996      -17.6718807      -11.6605501    
 Ni   11.0002003      -18.9330006      -9.47535992    
 Ni   9.02663994      -20.1896706      -10.2053299    
 Ni   9.03277016      -18.9319592      -12.3885498    
 Ni   9.03345013      -21.4564495      -12.3887501    
 Ni   11.0002403      -20.1924400      -11.6592398    
 Ni   12.9751902      -18.9256306      -10.9348898    
 Ni   14.9635201      -17.6706905      -10.2058697    
 Ni   14.9632397      -15.1678104      -5.82787991    
 Ni   12.9755201      -13.8990297      -6.56790018    
 Ni   12.9841805      -15.1477404      -4.37125015    
 Ni   11.0106297      -16.4086609      -5.10143995    
 Ni   11.0066404      -15.1470098      -7.28827000    
 Ni   9.03466034      -16.4057007      -8.01581955    
 Ni   9.02960968      -15.1476603      -10.2011499    
 Ni   7.06380987      -16.4086800      -10.9309101    
 Ni   7.06483984      -17.6699409      -8.74499035    
 Ni   5.09575987      -18.9332695      -9.47309971    
 Ni   5.09833002      -17.6707001      -11.6591702    
 Ni   3.11698008      -18.9325409      -12.3863602    
 Ni   3.11525011      -20.1933308      -10.2032499    
 Ni   3.11806011      -21.4581604      -12.3884802    
 Ni   5.09627008      -20.1952496      -11.6588097    
 Ni   7.06262016      -18.9300003      -10.9308395    
 Ni   9.03359985      -17.6702995      -10.2025299    
 Ni   11.0028095      -16.4079208      -9.47465992    
 Ni   12.9790497      -15.1485205      -8.75300026    
 Ni   11.0178099      -13.8744402      -9.46823025    
 Ni   12.9796000      -13.8909502      -10.9303598    
 Ni   12.9803801      -11.3675203      -10.9395599    
 Ni   14.9378500      -10.0993404      -10.2584496    
 Ni   14.9625998      -8.83242035      -12.4189701    
 Ni   14.9630098      -11.3696098      -12.4137001    
 Ni   14.9615898      -12.6272297      -10.2147198    
 Ni   13.0588799      -12.5800505      -8.73194981    
 Ni   14.9556398      -13.8942604      -8.02626991    
 Ni   9.03355026      -16.4088898      -12.3885803    
 Ni   9.03446007      -13.8834600      -12.3884602    
 Ni   11.0072803      -12.6211796      -11.6575499    
 Ni   11.0239201      -11.3671103      -9.46712971    
 Ni   11.0126600      -8.83308983      -9.47348022    
 Ni   11.0049896      -7.57274008      -11.6605101    
 Ni   12.9652901      -6.29370022      -10.9371901    
 Ni   12.9933901      -7.56786013      -8.75588989    
 Ni   15.0223398      -8.70491982      -8.11666012    
 Ni   14.9394798      -6.24008989      -8.04036999    
 Ni   14.9666405      -7.55855989      -5.81023979    
 Ni   14.9581203      -8.83973980      -3.61740994    
 Ni   14.9591999      -10.0973797      -1.43722999    
 Ni   12.9752502      -11.3560600      -2.17631006    
 Ni   12.9737101      -20.1868801      -13.1125803    
 Ni   11.0073500      -13.8827200     -0.728340030    
 Ni   11.0089903      -12.6214600      -2.91688991    
 Ni   9.03691959      -13.8860302      -3.64382005    
 Ni   9.04108047      -12.6208000      -5.82820988    
 Ni   7.06783009      -13.8837605      -6.55759001    
 Ni   7.06830978      -12.6214104      -8.74477959    
 Ni   5.09627008      -13.8834600      -9.47231960    
 Ni   5.09689999      -12.6190004      -11.6584501    
 Ni   7.06749010      -11.3578701      -10.9303102    
 Ni   9.04111958      -10.0987396      -10.2020998    
 Ni   9.03528976      -8.83631992      -12.3895502    
 Ni   9.03627014      -11.3590603      -12.3889799    
 Ni   11.0095701      -10.0988998      -11.6585903    
 Ni   12.9775801      -8.82789040      -10.9398403    
 Ni   14.9450798      -7.52861023      -10.2700796    
 Ni   9.03474045      -18.9334507      -8.01613045    
 Ni   9.03621960      -17.6700592      -5.82939005    
 Ni   9.03752995      -16.4085407      -3.64369011    
 Ni   9.03645992      -15.1464100      -1.45836997    
 Ni   7.06562996      -13.8836498      -2.18613005    
 Ni   7.06366014      -11.3603001      -2.18783998    
 Ni   7.07010984      -10.0969801      -4.37274981    
 Ni   5.09847021      -11.3592997      -5.10122013    
 Ni   5.09920979      -10.0966702      -7.28765011    
 Ni   3.12032008      -11.3594599      -8.01583958    
 Ni   3.11876011      -12.6216202      -5.82969999    
 Ni   3.11579990      -13.8858900      -3.64467001    
 Ni   5.09751987      -12.6223402      -2.91698003    
 Ni   5.09623003      -11.3603601     -0.730520010    
 Ni   5.09507990      -13.8843803     -0.729569972    
 Ni   7.06450987      -20.1937599      -13.1167898    
 Ni   9.03458977      -12.6205997      -1.45921004    
 Ni   9.02851009      -10.0993004      -1.45533001    
 Ni   11.0029497      -8.83720970     -0.730449975    
 Ni   12.9737701      -15.1536999      -13.1159096    
 Ni   12.9834099      -6.31332016      -2.18522000    
 Ni   12.9836502      -5.04578018      -4.36976004    
 Ni   12.9794598      -18.9336605      -6.56037998    
 Ni   11.0086498      -5.05255985      -7.28342009    
 Ni   11.0163202      -6.31134987      -5.10121012    
 Ni   9.04321957      -7.57346010      -5.82826996    
 Ni   9.03631973      -6.31344986      -8.01546001    
 Ni   7.06901979      -7.57524014      -8.74357033    
 Ni   7.06429005      -6.31140995      -10.9302902    
 Ni   5.09552002      -7.57421017      -11.6581802    
 Ni   5.09895992      -8.83580971      -9.47284985    
 Ni   3.11699009      -10.0988998      -10.2029896    
 Ni   3.11747003      -8.83574009      -12.3877096    
 Ni   3.11598992      -11.3594103      -12.3862896    
 Ni   3.11881995      -13.8831501      -12.3875704    
 Ni   3.11595988      -15.1457701      -10.2005701    
 Ni   3.11718988      -16.4072399      -8.01554966    
 Ni   5.09736013      -15.1452599      -7.28669977    
 Ni   7.06569004      -16.4079208      -6.55873013    
 Ni   5.09663010      -16.4066792      -5.10002995    
 Ni   7.06724024      -15.1465902      -4.37271976    
 Ni   5.09765005      -13.8842402      -5.10107994    
 Ni   7.06786013      -12.6221199      -4.37232018    
 Ni   9.03730011      -11.3599997      -3.64271998    
 Ni   11.0080099      -10.0971899      -2.91874003    
 Ni   9.04090023      -8.83368015      -3.64524007    
 Ni   11.0280600      -8.83854961      -5.10151005    
 Ni   13.0375099      -10.0993795      -4.40298986    
 Ni   13.0205498      -8.83806038      -6.57347012    
 Ni   11.0304203      -10.0928001      -7.28808022    
 Ni   9.04325008      -11.3565302      -8.01424026    
 Ni   9.04491997      -8.83654976      -8.01395035    
 Ni   7.07099009      -8.83520031      -6.55877018    
 Ni   7.06797981      -6.31191015      -6.55823994    
 Ni   7.06486988      -3.78667998      -6.55861998    
 Ni   7.06665993      -5.04919004      -4.37198019    
 Ni   5.09789991      -6.31241989      -5.10075998    
 Ni   5.09735012      -7.57243013      -2.91774011    
 Ni   5.09487009      -8.83524990     -0.730050027    
 Ni   7.06403017      -7.57362986       7.99999980E-05
 Ni   7.06552982      -6.31124020      -2.18688011    
 Ni   9.03859997      -6.31020021      -3.64384007    
 Ni   9.03602982      -3.78600001      -3.64157009    
 Ni   11.0107203      -2.52424002      -2.91429996    
 Ni   12.9850197      -1.26199996      -2.18560004    
 Ni   12.9825296      -2.52651000      -2.64999992E-03
 Ni   11.0093203      -3.78748012     -0.727869987    
 Ni   9.03538036      -5.04732990      -1.45833004    
 Ni   11.0084801      -6.31198978     -0.729789972    
 Ni   11.0124502      -7.57201004      -2.92178011    
 Ni   12.9754496      -8.83780956      -2.18356991    
 Ni   14.9620705      -7.57123995      -1.44962001    
 Ni   14.9661102      -5.04655981      -1.46466994    
 Ni   14.9689302      -3.78125000      -3.64074993    
 Ni   14.9655504      -6.29990005      -3.63398004    
 Ni   14.9627104      -5.03669024      -5.82297993    
 Ni   12.9916296      -6.31197977      -6.56073999    
 Ni   12.9955101      -7.57403994      -4.37630987    
 Ni   7.06813002      -11.3589802      -6.55840015    
 Ni   9.04494953      -10.0957298      -5.83070993    
 Ni   11.0012102      -11.3582802     -0.729250014    
 Ni   12.9751701      -10.0984802       5.51000005E-03
 Ni   12.9817200      -16.4132996      -6.56294012    
 Ni   11.0075903      -17.6717300      -7.28809023    
 Ni   3.11597991      -12.6198597      -10.2030296    
 Ni   5.09815979      -11.3592596      -9.47408009    
 Ni   7.06996012      -10.0972900      -8.74499035    
 Ni   7.06692982      -8.83555984      -10.9306803    
 Ni   9.03365040      -7.57353020      -10.2010803    
 Ni   10.9927902      -6.30811024      -9.47620964    
 Ni   12.9626904      -5.03694010      -8.75496960    
 Ni   3.11699009      -13.8848696      -8.01566029    
 Ni   5.09813976      -12.6217699      -7.28719997    
 Ni   5.09770012      -10.0984602      -11.6587601    
 Ni   3.11584997      -15.1460400      -5.82747984    
 Ni   3.11758995      -17.6704006      -5.82748985    
 Ni   3.11796999      -18.9335098      -8.01496029    
 Ni   5.09504986      -17.6700993      -7.28631020    
 Ni   5.09658003      -16.4072208      -9.47224998    
 Ni   7.06398010      -15.1441097      -8.74333000    
 Ni   9.03736019      -13.8830900      -8.01436043    
 Ni   11.0223198      -12.6238003      -7.29873991    
 Ni   12.9994602      -11.3595600      -6.56995010    
 Ni   11.0218697      -11.3538198      -5.10070992    
 Ni   11.0119801      -13.8823204      -5.10110998    
 Ni   12.9834404      -12.6210299      -4.36866999    
 Ni   14.9555902      -11.3784904      -3.60343003    
 Ni   14.9604597      -12.6294403      -1.44052005    
 Ni   12.9817600      -13.8807898      -2.18249011    
 Ni   11.0104904      -15.1462202      -2.91424990    
 Ni   3.11487007      -16.4070091      -3.64436007    
 Ni   3.11746001      -15.1471996      -1.45835996    
 Ni   5.09654999      -15.1465197      -2.91674995    
 Ni   7.06471014      -13.8825798      -10.9301205    
 Ni   9.03750038      -12.6191597      -10.2019701    
 Ni   3.11678004      -17.6721897      -10.2032700    
 Ni   3.11877990      -16.4087009      -12.3871698    
 Ni   5.09579992      -15.1452703      -11.6590405    
 Ni   3.11689997      -12.6214104      -1.45861995    
 Ni   3.11563993      -10.0985699      -1.45833004    
 Ni   3.11689997      -8.83374977      -3.64473009    
 Ni   3.11696005      -7.57320023      -5.82805014    
 Ni   3.11661005      -6.31230021      -8.01607990    
 Ni   5.09558010      -5.05017996      -7.28676987    
 Ni   5.09641981      -6.31236982      -9.47239971    
 Ni   7.06451988      -5.04991007      -8.74394035    
 Ni   3.11787009      -11.3597803      -3.64303994    
 Ni   5.09674978      -10.0979004      -2.91599989    
 Ni   7.06533003      -8.83551025      -2.18788004    
 Ni   9.03546047      -7.57293987      -1.45943999    
 Ni   5.09916019      -8.83411026      -5.10152006    
 Ni   7.06991005      -7.57367992      -4.37377024    
 Ni   3.12052989      -10.0973301      -5.82993984    
 Ni   3.11868000      -8.83450985      -8.01632023    
 Ni   5.09908009      -7.57386017      -7.28715992    
 Ni   3.11670995      -7.57356977      -10.2004900    
 Ni   7.06329012      -10.0971203       4.40000003E-04
 Ni   9.03740025      -15.1463003      -5.82729006    
 Ni   9.03682995      -5.04938984      -5.82799006    
 Ni   11.0100698      -3.78585005      -5.10071993    
 Ni   12.9847803      -2.52415991      -4.37192011    
 Ni   12.9839001      -3.78775001      -2.18453002    
 Ni   14.9689598      -2.52547002      -1.46899998    
 Ni   11.0032902      -15.1483297      -11.6587095    
 Ni   11.0189199      -7.57104015      -7.28867006    
 Ni   11.0094004      -5.04840994      -2.91421008    
 Ni   13.0089598      -10.0879002      -8.75255966    
 Ni   12.9816504      -5.05639982      -3.19999992E-04
 Ni   15.0532503      -10.1474400      -5.74791002    
 Ni   3.11726999      -5.04902983      -5.82938004    
 Ni   3.11525011      -3.78665996      -3.64246011    
 Ni   5.09617996      -2.52500010      -2.91458011    
 Ni   7.06563997      -1.26247001      -2.18683004    
 Ni   7.06601000      -2.52485991      -5.79999993E-04
 Ni   5.09638023      -3.78595996     -0.729070008    
 Ni   3.11615992      -5.04719019      -1.45825005    
 Ni   5.09473991      -6.30870008     -0.730229974    
 Ni   7.06504011      -12.6217499      -13.1163301    
 Ni   7.06381989      -3.78741002      -2.18571997    
 Ni   9.03627968      -2.52585006      -1.45888996    
 Ni   11.0105495      -1.26192999     -0.728450000    
 Ni   12.9789400      -15.1407499      -1.65999995E-03
 Ni   3.11624002      -6.31274986      -3.64474010    
 Ni   5.09645987      -5.04807997      -2.91529012    
 Ni   5.09541988      -3.78687000      -5.09957981    
 Ni   7.06559992      -2.52419996      -4.37201977    
 Ni   3.11794996      -7.57331991      -1.45861006    
 Ni   3.11533999      -2.52504992      -1.45811999    
 Ni   5.09545994      -1.26335001     -0.728950024    
 Ni   7.06443977      -15.1457701      -1.19999997E-04
 Ni   14.9599400      -21.4442501      -12.4073896    
 O    16.4431896      -10.3766003      -6.97105980    
 O    16.6993008      -9.07561016      -7.53434992    
