          12
 Energy:  -18.386717500000000      en  -18.346117499999998      edisp  -4.0599999999999997E-002
 X   0.00000000       0.00000000       0.00000000    
 X   14.5000000       0.00000000       0.00000000    
 X   0.00000000       14.5000000       0.00000000    
 X   0.00000000       0.00000000       14.5000000    
 X   14.5000000       14.5000000       0.00000000    
 X   14.5000000       0.00000000       14.5000000    
 X   0.00000000       14.5000000       14.5000000    
 X   14.5000000       14.5000000       14.5000000    
 O    0.00000000       0.00000000       0.00000000    
 O    1.20700002       0.00000000       0.00000000    
 O    0.00000000       0.00000000       2.25000000    
 O    1.20700002       0.00000000       2.25000000    
