         262
 Energy:  -1424.3520179000002      en  -1325.8902479000001      edisp  -98.461770000000001     
 X   0.00000000       0.00000000       0.00000000    
 X   0.00000000      -15.1462221       0.00000000    
 X   0.00000000      -7.57311106      -13.1170130    
 X   29.0000000       0.00000000       0.00000000    
 X   0.00000000      -22.7193336      -13.1170130    
 X   29.0000000      -15.1462221       0.00000000    
 X   29.0000000      -7.57311106      -13.1170130    
 X   29.0000000      -22.7193336      -13.1170130    
 Ni   14.9111700      -11.3231201      -8.00382996    
 Ni   15.0823898      -12.7066202      -5.78570986    
 Ni   15.0463495      -13.9474201      -3.60760999    
 Ni   15.0133495      -15.1607599      -1.46215999    
 Ni   15.0116901      -16.4275093      -3.63058996    
 Ni   15.0074100      -17.6738605      -5.81864977    
 Ni   14.9815302      -16.4029903      -8.01307964    
 Ni   14.9918203      -15.1452198      -10.1999798    
 Ni   14.9852304      -13.8805199      -12.3918695    
 Ni   14.9899302      -16.4091206      -12.3891497    
 Ni   14.9877300      -18.9253101      -12.3930302    
 Ni   14.9886904      -20.1816196      -10.2260303    
 Ni   14.9871101      -18.9268398      -8.01327991    
 Ni   13.0008602      -17.6702099      -8.75965977    
 Ni   13.0028400      -16.4153099      -10.9356699    
 Ni   11.0138597      -17.6700191      -11.6573400    
 Ni   11.0100698      -18.9258099      -9.48342991    
 Ni   9.03087997      -20.1868801      -10.2073698    
 Ni   9.02877998      -18.9319801      -12.3828802    
 Ni   9.02383041      -21.4511795      -12.3908300    
 Ni   11.0086899      -20.1816902      -11.6601601    
 Ni   12.9993601      -18.9211292      -10.9378405    
 Ni   14.9861002      -17.6675606      -10.2039299    
 Ni   15.0424500      -15.1988401      -5.79345989    
 Ni   13.0368500      -14.0566902      -6.55657005    
 Ni   13.0188503      -15.2056198      -4.33681011    
 Ni   11.0185299      -16.4064007      -5.10433006    
 Ni   10.9937296      -15.1924896      -7.30921984    
 Ni   9.01988029      -16.4148407      -8.02291012    
 Ni   9.02762985      -15.1579599      -10.2065697    
 Ni   7.05132008      -16.4081097      -10.9304104    
 Ni   7.05145979      -17.6694794      -8.74682999    
 Ni   5.07574987      -18.9314003      -9.47544956    
 Ni   5.07537985      -17.6716309      -11.6581497    
 Ni   3.09475994      -18.9325104      -12.3876400    
 Ni   3.09614992      -20.1949997      -10.2019997    
 Ni   3.09530997      -21.4579506      -12.3885298    
 Ni   5.07571983      -20.1930599      -11.6583595    
 Ni   7.05154991      -18.9283295      -10.9328499    
 Ni   9.02847958      -17.6721096      -10.2056704    
 Ni   11.0077105      -16.4254208      -9.48670959    
 Ni   12.9980898      -15.1829004      -8.77439976    
 Ni   11.0023699      -13.9250202      -9.49707031    
 Ni   13.0027800      -13.9127102      -10.9483099    
 Ni   13.0162802      -11.4247103      -11.0510998    
 Ni   15.0775499      -10.0858603      -10.2983999    
 Ni   15.0206299      -8.84206009      -12.4502602    
 Ni   15.0314999      -11.3558702      -12.4289198    
 Ni   15.0017500      -12.6052799      -10.2122097    
 Ni   12.9740696      -12.7055798      -8.78007030    
 Ni   15.0082998      -13.8871698      -7.99715996    
 Ni   9.02606010      -16.4116592      -12.3823404    
 Ni   9.01776028      -13.8923197      -12.3885899    
 Ni   10.9931297      -12.6631603      -11.6893301    
 Ni   10.9815197      -11.4106102      -9.52330017    
 Ni   10.9940100      -8.79601002      -9.50594044    
 Ni   11.0016403      -7.55002022      -11.6801205    
 Ni   12.9950705      -6.28947020      -10.9389601    
 Ni   13.0274000      -7.59477997      -8.72756004    
 Ni   15.8094301      -8.91678047      -8.43445969    
 Ni   15.0209398      -6.20860004      -8.04372025    
 Ni   14.9936504      -7.51792002      -5.69886017    
 Ni   14.9913197      -8.82812977      -3.62408996    
 Ni   14.9936304      -10.1011000      -1.45254004    
 Ni   13.0020599      -11.3590498      -2.12832999    
 Ni   12.9978104      -20.1865101      -13.1024904    
 Ni   11.0014095      -13.8799400     -0.712920010    
 Ni   10.9887505      -12.6293602      -2.85204005    
 Ni   9.03787994      -13.8835201      -3.64895010    
 Ni   9.01626015      -12.6280804      -5.82853985    
 Ni   7.04850006      -13.8888102      -6.55816984    
 Ni   7.04323006      -12.6217604      -8.74555016    
 Ni   5.07473993      -13.8849001      -9.47226048    
 Ni   5.07589006      -12.6203203      -11.6592903    
 Ni   7.04825020      -11.3607302      -10.9348001    
 Ni   9.01840019      -10.0954905      -10.2084103    
 Ni   9.03577042      -8.83722019      -12.3871403    
 Ni   9.03623009      -11.3573103      -12.3881197    
 Ni   11.0370598      -10.1005898      -11.6501198    
 Ni   13.0283604      -8.78859043      -11.0278597    
 Ni   15.0302401      -7.54133987      -10.3362103    
 Ni   9.02285957      -18.9253998      -8.02175045    
 Ni   9.03522968      -17.6706905      -5.82925987    
 Ni   9.03559017      -16.4076805      -3.64363003    
 Ni   9.03505039      -15.1464901      -1.45788002    
 Ni   7.05415010      -13.8852797      -2.18669009    
 Ni   7.04376984      -11.3588400      -2.18016005    
 Ni   7.03042984      -10.0998602      -4.37336016    
 Ni   5.07328987      -11.3619499      -5.10129023    
 Ni   5.07421017      -10.0970297      -7.28842020    
 Ni   3.09663010      -11.3589001      -8.01564980    
 Ni   3.09684992      -12.6218004      -5.82999992    
 Ni   3.09489012      -13.8858700      -3.64374995    
 Ni   5.07549000      -12.6216097      -2.91357994    
 Ni   5.07524014      -11.3603296     -0.729059994    
 Ni   5.07606983      -13.8835297     -0.729059994    
 Ni   7.05006981      -20.1937008      -13.1161203    
 Ni   9.01809025      -12.6208401      -1.44589996    
 Ni   9.02040958      -10.1028795      -1.42910004    
 Ni   11.0070200      -8.83650970     -0.700510025    
 Ni   12.9998198      -15.1549196      -13.1043797    
 Ni   13.0126696      -6.28444004      -2.15091991    
 Ni   13.0171299      -5.02087021      -4.34468985    
 Ni   13.0067196      -18.9024506      -6.56324005    
 Ni   10.9931402      -5.01992989      -7.30624008    
 Ni   11.0097399      -6.32735014      -5.08320999    
 Ni   9.01311970      -7.57518005      -5.82021999    
 Ni   9.01519966      -6.29901981      -8.03258991    
 Ni   7.04572010      -7.57557011      -8.74606991    
 Ni   7.04871988      -6.30502987      -10.9329901    
 Ni   5.07674980      -7.57325983      -11.6585398    
 Ni   5.07524014      -8.83432961      -9.47245979    
 Ni   3.09642005      -10.0984497      -10.2017097    
 Ni   3.09506011      -8.83590984      -12.3892498    
 Ni   3.09429002      -11.3594303      -12.3892002    
 Ni   3.09506989      -13.8837795      -12.3878202    
 Ni   3.09608006      -15.1452703      -10.2019501    
 Ni   3.09611011      -16.4081802      -8.01525021    
 Ni   5.07565022      -15.1466198      -7.28814983    
 Ni   7.05321980      -16.4088802      -6.55825996    
 Ni   5.07587004      -16.4064999      -5.09973001    
 Ni   7.05556011      -15.1455097      -4.37332010    
 Ni   5.07531023      -13.8862400      -5.09961987    
 Ni   7.04783010      -12.6253004      -4.37042999    
 Ni   8.99481964      -11.3514404      -3.61627007    
 Ni   10.9952803      -10.0942802      -2.85422993    
 Ni   8.99829006      -8.83666992      -3.60961008    
 Ni   11.0333300      -8.81614971      -5.06400013    
 Ni   12.9732504      -10.1140003      -4.29083014    
 Ni   12.9784899      -8.85671997      -6.42332983    
 Ni   11.0788698      -10.1275797      -7.28385019    
 Ni   9.03180027      -11.3561802      -8.01502037    
 Ni   9.03983021      -8.84799957      -8.00940037    
 Ni   7.03917980      -8.83288956      -6.56080008    
 Ni   7.04189014      -6.30233002      -6.56087017    
 Ni   7.05335999      -18.9313202      -6.55856991    
 Ni   7.05520010      -5.04780006      -4.37227011    
 Ni   5.07190990      -6.31033993      -5.10065985    
 Ni   5.07063007      -7.57160997      -2.91582990    
 Ni   5.07105017      -8.83555984     -0.723680019    
 Ni   7.04545021      -15.1460199      -13.1108398    
 Ni   7.05289984      -6.30969000      -2.18724990    
 Ni   9.03540039      -6.31378984      -3.64549994    
 Ni   9.03680038      -3.78776002      -3.64270997    
 Ni   11.0186701      -2.52459002      -2.91619992    
 Ni   13.0053301      -1.27542996      -2.18505001    
 Ni   13.0139704      -2.52137995      -4.67800014E-02
 Ni   11.0195704      -3.78663993     -0.728550017    
 Ni   9.03491020      -5.04664993      -1.45923996    
 Ni   11.0003500      -6.31740999     -0.716189981    
 Ni   10.9962797      -7.57200003      -2.86331010    
 Ni   13.0001497      -8.82919025      -2.14692998    
 Ni   14.9846497      -7.56512022      -1.46551001    
 Ni   15.0128002      -5.03072977      -1.45844996    
 Ni   15.0056105      -3.77277994      -3.62941003    
 Ni   15.0160198      -6.28321981      -3.64808011    
 Ni   15.0193996      -4.99104977      -5.79268980    
 Ni   12.9327698      -6.19565010      -6.49959993    
 Ni   12.9875603      -7.55618000      -4.32715988    
 Ni   7.03862000      -11.3670902      -6.56230021    
 Ni   9.02521038      -10.0911102      -5.83604002    
 Ni   11.0101604      -11.3606100     -0.699310005    
 Ni   13.0030699      -10.0963497       1.65400002E-02
 Ni   13.0047703      -16.4896202      -6.55816984    
 Ni   11.0034800      -17.6759109      -7.30003023    
 Ni   3.09685993      -12.6205196      -10.2020597    
 Ni   5.07535982      -11.3595505      -9.47562027    
 Ni   7.04621983      -10.0989199      -8.74763012    
 Ni   7.04893017      -8.83366013      -10.9344702    
 Ni   9.01593971      -7.55516005      -10.2040796    
 Ni   11.0342102      -6.30504990      -9.47572041    
 Ni   12.9948502      -5.02675009      -8.76412964    
 Ni   3.09605002      -13.8836899      -8.01502991    
 Ni   5.07439995      -12.6242504      -7.28811979    
 Ni   5.07515001      -10.0989504      -11.6584797    
 Ni   3.09524989      -15.1469402      -5.82839012    
 Ni   3.09396005      -17.6704102      -5.82892990    
 Ni   3.09534001      -18.9336796      -8.01509953    
 Ni   5.07607985      -17.6700306      -7.28748989    
 Ni   5.07516003      -16.4077702      -9.47165966    
 Ni   7.04680014      -15.1492500      -8.74917984    
 Ni   9.00642014      -13.9002504      -8.03089046    
 Ni   10.9902000      -12.6928101      -7.29576015    
 Ni   12.9659901      -11.7110500      -6.23016977    
 Ni   10.9565897      -11.3615398      -5.00419998    
 Ni   11.0522099      -13.8664103      -5.10916996    
 Ni   13.0298901      -12.7324400      -4.18787003    
 Ni   14.9987202      -11.3848896      -3.63034010    
 Ni   14.9849005      -12.6260500      -1.46638000    
 Ni   13.0031099      -13.9417696      -2.09155989    
 Ni   11.0187197      -15.1433001      -2.91668010    
 Ni   3.09378004      -16.4082603      -3.64320993    
 Ni   3.09361005      -15.1470699      -1.45785999    
 Ni   5.07663012      -15.1464005      -2.91691995    
 Ni   7.04661989      -13.8902903      -10.9325304    
 Ni   9.00273991      -12.6440296      -10.2120504    
 Ni   3.09587002      -17.6713409      -10.2028103    
 Ni   3.09505010      -16.4085808      -12.3879404    
 Ni   5.07553005      -15.1459198      -11.6579399    
 Ni   3.09647012      -12.6229801      -1.45817995    
 Ni   3.09647012      -10.0978603      -1.45846999    
 Ni   3.09521008      -8.83425045      -3.64529991    
 Ni   3.09581995      -7.57403994      -5.82974005    
 Ni   3.09629989      -6.31198978      -8.01445961    
 Ni   5.07553005      -5.04825020      -7.28802013    
 Ni   5.07347012      -6.31229019      -9.47276974    
 Ni   7.04445982      -5.04187012      -8.75148964    
 Ni   3.09547997      -11.3609400      -3.64433002    
 Ni   5.06864023      -10.1004105      -2.91398001    
 Ni   7.02381992      -8.83545971      -2.15911007    
 Ni   9.01239967      -7.57009983      -1.43289006    
 Ni   5.07122993      -8.83312035      -5.10079002    
 Ni   7.03544998      -7.56501007      -4.37147999    
 Ni   3.09689999      -10.0980196      -5.83074999    
 Ni   3.09576011      -8.83605003      -8.01624012    
 Ni   5.07376003      -7.57290983      -7.28928995    
 Ni   3.09660006      -7.57467985      -10.2019701    
 Ni   7.04911995      -10.0990295       6.08000020E-03
 Ni   9.03794956      -15.1438999      -5.82741022    
 Ni   9.03561974      -5.05229998      -5.83036995    
 Ni   11.0187597      -3.79166007      -5.10341978    
 Ni   13.0063801      -2.52820992      -4.36285019    
 Ni   13.0050201      -3.77515006      -2.19177008    
 Ni   15.0059700      -2.52499008      -1.47553003    
 Ni   11.0089197      -15.1636896      -11.6637602    
 Ni   11.0099096      -7.55692005      -7.26938009    
 Ni   11.0221205      -5.05185986      -2.91499996    
 Ni   12.9736900      -10.0787897      -9.17068005    
 Ni   13.0052605      -5.06738997      -4.13799994E-02
 Ni   14.9940500      -10.1889296      -5.70239019    
 Ni   3.09565997      -5.04808998      -5.82905006    
 Ni   3.09523010      -3.78622007      -3.64391994    
 Ni   5.07525015      -2.52572989      -2.91415000    
 Ni   7.05455017      -1.26302004      -2.18633008    
 Ni   7.05498981      -10.0982199      -13.1163902    
 Ni   5.07564020      -3.78614998     -0.730080009    
 Ni   3.09488010      -5.04762983      -1.45787001    
 Ni   5.07563019      -6.30935001     -0.729179978    
 Ni   7.05331993      -5.04825020      -4.79999988E-04
 Ni   7.05361986      -3.78735995      -2.18595004    
 Ni   9.03553963      -2.52591991      -1.45836997    
 Ni   11.0168600      -1.26224995     -0.726849973    
 Ni   13.0023403      -15.1357498      -1.93000007E-02
 Ni   3.09441996      -6.30965996      -3.64339995    
 Ni   5.07653999      -5.04723978      -2.91453004    
 Ni   5.07717991      -3.78620005      -5.10042000    
 Ni   7.05449009      -2.52424002      -4.37145996    
 Ni   3.09439993      -7.57187986      -1.45806003    
 Ni   3.09513998      -2.52390003      -1.45744002    
 Ni   5.07616997      -1.26268995     -0.728999972    
 Ni   7.05340004      -1.19999997E-04  -9.69999994E-04
 Ni   14.9835701      -21.4385796      -12.4203901    
 O    13.2928305      -10.3479300      -7.43261003    
 O    14.6619396      -7.91518021      -7.47119999    
