         224
 Energy:  -1262.4224727999999      en  -1206.3304327999999      edisp  -56.092039999999997     
 X   0.00000000       0.00000000       0.00000000    
 X   12.6498585       0.00000000       0.00000000    
 X   0.00000000       12.6498585       0.00000000    
 X   0.00000000       0.00000000       12.6498585    
 X   12.6498585       12.6498585       0.00000000    
 X   12.6498585       0.00000000       12.6498585    
 X   0.00000000       12.6498585       12.6498585    
 X   12.6498585       12.6498585       12.6498585    
 Ni   0.00000000       0.00000000       0.00000000    
 Ni   0.00000000       0.00000000       4.21661997    
 Ni   0.00000000       0.00000000       8.43323994    
 Ni   0.00000000       4.21661997       0.00000000    
 Ni   0.00000000       4.21661997       4.21661997    
 Ni   0.00000000       4.21661997       8.43323994    
 Ni   0.00000000       8.43323994       0.00000000    
 Ni   0.00000000       8.43323994       4.21661997    
 Ni   0.00000000       8.43323994       8.43323994    
 Ni   4.21661997       0.00000000       0.00000000    
 Ni   4.21661997       0.00000000       4.21661997    
 Ni   4.21661997       0.00000000       8.43323994    
 Ni   4.21661997       4.21661997       0.00000000    
 Ni   4.21661997       4.21661997       4.21661997    
 Ni   4.21661997       4.21661997       8.43323994    
 Ni   4.21661997       8.43323994       0.00000000    
 Ni   4.21661997       8.43323994       4.21661997    
 Ni   4.21661997       8.43323994       8.43323994    
 Ni   8.43323994       0.00000000       0.00000000    
 Ni   8.43323994       0.00000000       4.21661997    
 Ni   8.43323994       0.00000000       8.43323994    
 Ni   8.43323994       4.21661997       0.00000000    
 Ni   8.43323994       4.21661997       4.21661997    
 Ni   8.43323994       4.21661997       8.43323994    
 Ni   8.43323994       8.43323994       0.00000000    
 Ni   8.43323994       8.43323994       4.21661997    
 Ni   8.43323994       8.43323994       8.43323994    
 Ni   0.00000000       2.10830998       2.10830998    
 Ni   0.00000000       2.10830998       6.32493019    
 Ni   0.00000000       2.10830998       10.5415497    
 Ni   0.00000000       6.32493019       2.10830998    
 Ni   0.00000000       6.32493019       6.32493019    
 Ni   0.00000000       6.32493019       10.5415497    
 Ni   0.00000000       10.5415497       2.10830998    
 Ni   0.00000000       10.5415497       6.32493019    
 Ni   0.00000000       10.5415497       10.5415497    
 Ni   4.21661997       2.10830998       2.10830998    
 Ni   4.21661997       2.10830998       6.32493019    
 Ni   4.21661997       2.10830998       10.5415497    
 Ni   4.21661997       6.32493019       2.10830998    
 Ni   4.21661997       6.32493019       6.32493019    
 Ni   4.21661997       6.32493019       10.5415497    
 Ni   4.21661997       10.5415497       2.10830998    
 Ni   4.21661997       10.5415497       6.32493019    
 Ni   4.21661997       10.5415497       10.5415497    
 Ni   8.43323994       2.10830998       2.10830998    
 Ni   8.43323994       2.10830998       6.32493019    
 Ni   8.43323994       2.10830998       10.5415497    
 Ni   8.43323994       6.32493019       2.10830998    
 Ni   8.43323994       6.32493019       6.32493019    
 Ni   8.43323994       6.32493019       10.5415497    
 Ni   8.43323994       10.5415497       2.10830998    
 Ni   8.43323994       10.5415497       6.32493019    
 Ni   8.43323994       10.5415497       10.5415497    
 Ni   2.10830998       0.00000000       2.10830998    
 Ni   2.10830998       0.00000000       6.32493019    
 Ni   2.10830998       0.00000000       10.5415497    
 Ni   2.10830998       4.21661997       2.10830998    
 Ni   2.10830998       4.21661997       6.32493019    
 Ni   2.10830998       4.21661997       10.5415497    
 Ni   2.10830998       8.43323994       2.10830998    
 Ni   2.10830998       8.43323994       6.32493019    
 Ni   2.10830998       8.43323994       10.5415497    
 Ni   6.32493019       0.00000000       2.10830998    
 Ni   6.32493019       0.00000000       6.32493019    
 Ni   6.32493019       0.00000000       10.5415497    
 Ni   6.32493019       4.21661997       2.10830998    
 Ni   6.32493019       4.21661997       6.32493019    
 Ni   6.32493019       4.21661997       10.5415497    
 Ni   6.32493019       8.43323994       2.10830998    
 Ni   6.32493019       8.43323994       6.32493019    
 Ni   6.32493019       8.43323994       10.5415497    
 Ni   10.5415497       0.00000000       2.10830998    
 Ni   10.5415497       0.00000000       6.32493019    
 Ni   10.5415497       0.00000000       10.5415497    
 Ni   10.5415497       4.21661997       2.10830998    
 Ni   10.5415497       4.21661997       6.32493019    
 Ni   10.5415497       4.21661997       10.5415497    
 Ni   10.5415497       8.43323994       2.10830998    
 Ni   10.5415497       8.43323994       6.32493019    
 Ni   10.5415497       8.43323994       10.5415497    
 Ni   2.10830998       2.10830998       0.00000000    
 Ni   2.10830998       2.10830998       4.21661997    
 Ni   2.10830998       2.10830998       8.43323994    
 Ni   2.10830998       6.32493019       0.00000000    
 Ni   2.10830998       6.32493019       4.21661997    
 Ni   2.10830998       6.32493019       8.43323994    
 Ni   2.10830998       10.5415497       0.00000000    
 Ni   2.10830998       10.5415497       4.21661997    
 Ni   2.10830998       10.5415497       8.43323994    
 Ni   6.32493019       2.10830998       0.00000000    
 Ni   6.32493019       2.10830998       4.21661997    
 Ni   6.32493019       2.10830998       8.43323994    
 Ni   6.32493019       6.32493019       0.00000000    
 Ni   6.32493019       6.32493019       4.21661997    
 Ni   6.32493019       6.32493019       8.43323994    
 Ni   6.32493019       10.5415497       0.00000000    
 Ni   6.32493019       10.5415497       4.21661997    
 Ni   6.32493019       10.5415497       8.43323994    
 Ni   10.5415497       2.10830998       0.00000000    
 Ni   10.5415497       2.10830998       4.21661997    
 Ni   10.5415497       2.10830998       8.43323994    
 Ni   10.5415497       6.32493019       0.00000000    
 Ni   10.5415497       6.32493019       4.21661997    
 Ni   10.5415497       6.32493019       8.43323994    
 Ni   10.5415497       10.5415497       0.00000000    
 Ni   10.5415497       10.5415497       4.21661997    
 Ni   10.5415497       10.5415497       8.43323994    
 O    2.10830998       0.00000000       0.00000000    
 O    2.10830998       0.00000000       4.21661997    
 O    2.10830998       0.00000000       8.43323994    
 O    2.10830998       4.21661997       0.00000000    
 O    2.10830998       4.21661997       4.21661997    
 O    2.10830998       4.21661997       8.43323994    
 O    2.10830998       8.43323994       0.00000000    
 O    2.10830998       8.43323994       4.21661997    
 O    2.10830998       8.43323994       8.43323994    
 O    6.32493019       0.00000000       0.00000000    
 O    6.32493019       0.00000000       4.21661997    
 O    6.32493019       0.00000000       8.43323994    
 O    6.32493019       4.21661997       0.00000000    
 O    6.32493019       4.21661997       4.21661997    
 O    6.32493019       4.21661997       8.43323994    
 O    6.32493019       8.43323994       0.00000000    
 O    6.32493019       8.43323994       4.21661997    
 O    6.32493019       8.43323994       8.43323994    
 O    10.5415497       0.00000000       0.00000000    
 O    10.5415497       0.00000000       4.21661997    
 O    10.5415497       0.00000000       8.43323994    
 O    10.5415497       4.21661997       0.00000000    
 O    10.5415497       4.21661997       4.21661997    
 O    10.5415497       4.21661997       8.43323994    
 O    10.5415497       8.43323994       0.00000000    
 O    10.5415497       8.43323994       4.21661997    
 O    10.5415497       8.43323994       8.43323994    
 O    2.10830998       2.10830998       2.10830998    
 O    2.10830998       2.10830998       6.32493019    
 O    2.10830998       2.10830998       10.5415497    
 O    2.10830998       6.32493019       2.10830998    
 O    2.10830998       6.32493019       6.32493019    
 O    2.10830998       6.32493019       10.5415497    
 O    2.10830998       10.5415497       2.10830998    
 O    2.10830998       10.5415497       6.32493019    
 O    2.10830998       10.5415497       10.5415497    
 O    6.32493019       2.10830998       2.10830998    
 O    6.32493019       2.10830998       6.32493019    
 O    6.32493019       2.10830998       10.5415497    
 O    6.32493019       6.32493019       2.10830998    
 O    6.32493019       6.32493019       6.32493019    
 O    6.32493019       6.32493019       10.5415497    
 O    6.32493019       10.5415497       2.10830998    
 O    6.32493019       10.5415497       6.32493019    
 O    6.32493019       10.5415497       10.5415497    
 O    10.5415497       2.10830998       2.10830998    
 O    10.5415497       2.10830998       6.32493019    
 O    10.5415497       2.10830998       10.5415497    
 O    10.5415497       6.32493019       2.10830998    
 O    10.5415497       6.32493019       6.32493019    
 O    10.5415497       6.32493019       10.5415497    
 O    10.5415497       10.5415497       2.10830998    
 O    10.5415497       10.5415497       6.32493019    
 O    10.5415497       10.5415497       10.5415497    
 O    0.00000000       0.00000000       2.10830998    
 O    0.00000000       0.00000000       6.32493019    
 O    0.00000000       0.00000000       10.5415497    
 O    0.00000000       4.21661997       2.10830998    
 O    0.00000000       4.21661997       6.32493019    
 O    0.00000000       4.21661997       10.5415497    
 O    0.00000000       8.43323994       2.10830998    
 O    0.00000000       8.43323994       6.32493019    
 O    0.00000000       8.43323994       10.5415497    
 O    4.21661997       0.00000000       2.10830998    
 O    4.21661997       0.00000000       6.32493019    
 O    4.21661997       0.00000000       10.5415497    
 O    4.21661997       4.21661997       2.10830998    
 O    4.21661997       4.21661997       6.32493019    
 O    4.21661997       4.21661997       10.5415497    
 O    4.21661997       8.43323994       2.10830998    
 O    4.21661997       8.43323994       6.32493019    
 O    4.21661997       8.43323994       10.5415497    
 O    8.43323994       0.00000000       2.10830998    
 O    8.43323994       0.00000000       6.32493019    
 O    8.43323994       0.00000000       10.5415497    
 O    8.43323994       4.21661997       2.10830998    
 O    8.43323994       4.21661997       6.32493019    
 O    8.43323994       4.21661997       10.5415497    
 O    8.43323994       8.43323994       2.10830998    
 O    8.43323994       8.43323994       6.32493019    
 O    8.43323994       8.43323994       10.5415497    
 O    0.00000000       2.10830998       0.00000000    
 O    0.00000000       2.10830998       4.21661997    
 O    0.00000000       2.10830998       8.43323994    
 O    0.00000000       6.32493019       0.00000000    
 O    0.00000000       6.32493019       4.21661997    
 O    0.00000000       6.32493019       8.43323994    
 O    0.00000000       10.5415497       0.00000000    
 O    0.00000000       10.5415497       4.21661997    
 O    0.00000000       10.5415497       8.43323994    
 O    4.21661997       2.10830998       0.00000000    
 O    4.21661997       2.10830998       4.21661997    
 O    4.21661997       2.10830998       8.43323994    
 O    4.21661997       6.32493019       0.00000000    
 O    4.21661997       6.32493019       4.21661997    
 O    4.21661997       6.32493019       8.43323994    
 O    4.21661997       10.5415497       0.00000000    
 O    4.21661997       10.5415497       4.21661997    
 O    4.21661997       10.5415497       8.43323994    
 O    8.43323994       2.10830998       0.00000000    
 O    8.43323994       2.10830998       4.21661997    
 O    8.43323994       2.10830998       8.43323994    
 O    8.43323994       6.32493019       0.00000000    
 O    8.43323994       6.32493019       4.21661997    
 O    8.43323994       6.32493019       8.43323994    
 O    8.43323994       10.5415497       0.00000000    
 O    8.43323994       10.5415497       4.21661997    
 O    8.43323994       10.5415497       8.43323994    
