          12
 Energy:  -16.864479800000002      en  -16.825739800000001      edisp  -3.8739999999999997E-002
 X   0.00000000       0.00000000       0.00000000    
 X   14.5000000       0.00000000       0.00000000    
 X   0.00000000       14.5000000       0.00000000    
 X   0.00000000       0.00000000       14.5000000    
 X   14.5000000       14.5000000       0.00000000    
 X   14.5000000       0.00000000       14.5000000    
 X   0.00000000       14.5000000       14.5000000    
 X   14.5000000       14.5000000       14.5000000    
 O    0.00000000       0.00000000       0.00000000    
 O    1.20000005       0.00000000       0.00000000    
 O   0.500000000       13.8999996       2.50000000    
 O   0.500000000      0.600000024       2.50000000    
