         260
 Energy:  -1038.2675565000000     
 X   0.00000000       0.00000000       0.00000000    
 X   10.5415001       0.00000000       0.00000000    
 X   5.27075005       9.12920666       0.00000000    
 X   0.00000000       0.00000000       28.5415001    
 X   15.8122501       9.12920666       0.00000000    
 X   10.5415001       0.00000000       28.5415001    
 X   5.27075005       9.12920666       28.5415001    
 X   15.8122501       9.12920666       28.5415001    
 Ni  -8.96999985E-03  -4.13999986E-03  -3.50671005    
 Ni  -2.97999997E-02   2.14799996E-02  0.196569994    
 Ni  -4.41999994E-02  -3.02700009E-02   4.04486990    
 Ni  -8.34899992E-02   9.03199986E-02   7.49047995    
 Ni   1.50600001E-02 -0.191929996       10.8761301    
 Ni   1.06320000       1.82546997      -3.48625994    
 Ni  0.990459979       1.80973995      0.243640006    
 Ni   1.05759001       1.82420003       3.99157000    
 Ni   1.08710003       1.83995998       7.98139000    
 Ni  0.944999993       1.69261003       10.9431400    
 Ni   2.11176991       3.65164995      -3.58521008    
 Ni   2.09085011       3.64841008      0.145500004    
 Ni   2.11750007       3.64147997       3.86716008    
 Ni   2.14473009       3.73304009       7.41370010    
 Ni   2.10618997       3.55807996       11.0286798    
 Ni   3.14937997       5.47407007      -3.48885012    
 Ni   3.15998006       5.48711014      0.345530003    
 Ni   3.19086003       5.48350000       4.02280998    
 Ni   3.23241997       5.73823023       8.24676037    
 Ni   3.20448995       5.32620001       11.4632397    
 Ni   4.21867990       7.29463005      -3.48843002    
 Ni   4.20920992       7.31330013      -9.38600004E-02
 Ni   4.21224022       7.32070017       3.70892000    
 Ni   4.37832022       7.53836012       6.31328011    
 Ni   4.43943977       6.81742001       10.5364704    
 Ni   2.11207008       5.51000005E-03  -3.44751000    
 Ni   2.09998989       3.52000003E-03  0.354559988    
 Ni   2.11605000       2.07100008E-02   4.03828001    
 Ni   1.97957003      -1.35000004E-02   7.36964989    
 Ni   2.14863992      -9.70000029E-03   10.7531996    
 Ni   3.16430998       1.82555997      -3.53470993    
 Ni   3.16849995       1.81603003      0.122840002    
 Ni   3.17190003       1.82598996       3.88460994    
 Ni   3.15795994       1.85421002       7.33835983    
 Ni   3.20668006       1.82533002       11.0780001    
 Ni   4.20461988       3.64602995      -3.47440004    
 Ni   4.22520018       3.65084004      0.201309994    
 Ni   4.23411989       3.67907000       4.15945005    
 Ni   4.19588995       3.75611997       7.67940998    
 Ni   4.59365988       3.87258005       10.7312899    
 Ni   5.26528978       5.47158003      -3.47272992    
 Ni   5.27325010       5.48080015      -8.62400010E-02
 Ni   5.27222013       5.46800995       3.06602001    
 Ni   5.05346012       5.58562994       6.64699984    
 Ni   5.63882017       5.08058977       12.6181297    
 Ni   6.32790995       7.29919004      -3.52958989    
 Ni   6.32465982       7.31472015      0.230130002    
 Ni   6.31087017       7.29909992       4.04802990    
 Ni   6.24846983       7.10301018       7.74166012    
 Ni   6.38609982       6.93251991       11.2820902    
 Ni   4.21159983      -4.71000001E-03  -3.58569002    
 Ni   4.27401018       2.43599992E-02   8.70499983E-02
 Ni   4.21014977       3.50299999E-02   3.94112992    
 Ni   4.20125008      -1.18399998E-02   7.54441023    
 Ni   4.32765007       5.74100018E-02   10.9005098    
 Ni   5.25689983       1.82044005      -3.49959993    
 Ni   5.37824011       1.88650000      0.423099995    
 Ni   5.26572990       1.86126006       3.89390993    
 Ni   5.28533983       1.79963005       7.72802019    
 Ni   5.35152006       1.95769000       11.2318897    
 Ni   6.31220007       3.65569997      -3.60346007    
 Ni   6.36850023       3.58402991      0.467449993    
 Ni   6.29244995       3.71652007       3.95538998    
 Ni   6.30960989       3.60500002       7.07785988    
 Ni   6.47191000       3.68853998       9.75212002    
 Ni   7.39446020       5.48659992      -3.42028999    
 Ni   7.37608004       5.48577976      0.399800003    
 Ni   7.34254980       5.47940016       4.02335978    
 Ni   7.47751999       5.36237001       7.05382013    
 Ni   7.50372982       5.41584015       10.1943502    
 Ni   8.43912983       7.31678009      -3.53283000    
 Ni   8.44618034       7.32103014      0.217480004    
 Ni   8.45228004       7.29341984       3.96293998    
 Ni   8.37679005       7.31820011       7.70884991    
 Ni   8.45211029       7.28445005       11.0423698    
 Ni   6.31676006      -1.14200003E-02  -3.47758007    
 Ni   6.39915991      0.163680002      0.487670004    
 Ni   6.33287001      -5.99999985E-05   4.13020992    
 Ni   6.37489986     -0.103550002       8.19915962    
 Ni   6.52316999       6.03999989E-03   10.8879604    
 Ni   7.37048006       1.84500003      -3.57787991    
 Ni   7.39238977       1.80280006      -1.02453995    
 Ni   7.44226980       1.74006999       4.25080013    
 Ni   7.45136976       1.66568005       7.10664988    
 Ni   7.34212017       1.97092998       10.9682503    
 Ni   8.44966030       3.66371989      -3.46860003    
 Ni   8.32837009       3.58563995      0.443679988    
 Ni   8.42632961       3.66844010       3.84787989    
 Ni   8.39682007       3.65026999       7.37929010    
 Ni   8.02974987       3.74025011       11.7655602    
 Ni   9.49660969       5.48541021      -3.56709003    
 Ni   9.48262024       5.46235991       9.32599977E-02
 Ni   9.48410034       5.47656012       3.95350003    
 Ni   9.50012970       5.44421005       7.56065989    
 Ni   9.39552021       5.39801979       11.2200298    
 Ni   10.5341501       7.29990005      -3.54259992    
 Ni   10.5859604       7.35651016      0.146180004    
 Ni   10.5471802       7.31457996       3.83857012    
 Ni   10.5848198       7.30899000       7.64520979    
 Ni   10.5603104       7.26335001       10.6680698    
 Ni   8.43873978      -5.09000011E-03  -3.57160997    
 Ni   8.43976974      -1.43499998E-02 -0.273270011    
 Ni   8.38152981       1.58600006E-02   2.81553006    
 Ni   8.45464039     -0.194700003       7.25079012    
 Ni   8.53742981       8.44699964E-02   12.1566696    
 Ni   9.49372005       1.83062994      -3.55277991    
 Ni   9.31746006       1.84587002      0.445100009    
 Ni   9.49528980       1.78070998       3.92775011    
 Ni   9.54736042       1.96086001       6.99329996    
 Ni   9.29998016       1.84695005       10.3828497    
 Ni   10.5606098       3.65189004      -3.50334001    
 Ni   10.4952602       3.61485004      0.193619996    
 Ni   10.5197697       3.65937996       3.98894000    
 Ni   10.5475702       3.64016008       7.87584019    
 Ni   10.3681498       3.57944012       10.9372902    
 Ni   11.5862904       5.47388983      -3.53660011    
 Ni   11.5967903       5.48364019      0.194590002    
 Ni   11.5710897       5.46611023       3.98551011    
 Ni   11.6465197       5.56010008       7.70958996    
 Ni   11.5278702       5.44188023       10.7477703    
 Ni   12.6474705       7.30381012      -3.50878000    
 Ni   12.6489801       7.34398985      0.261280000    
 Ni   12.6894598       7.31947994       4.02273989    
 Ni   12.5525703       7.22811985       6.74381018    
 Ni   12.7586498       7.34770012       11.0147495    
 O    1.57388997      0.924499989      -1.82755005    
 O    1.56926000      0.945060015       2.16122007    
 O    1.51742005      0.869340003       5.85819006    
 O    1.65398002      0.841250002       9.22931004    
 O    1.28669000      0.937290013       12.8862896    
 O    2.61866999       2.64196992      -1.64236999    
 O    2.63555002       2.72636008       2.17405009    
 O    2.56083989       2.76099992       5.92033005    
 O    2.79896998       2.84433007       9.24390030    
 O    2.50025010       2.67352009       12.7736502    
 O    3.74849010       4.45454979      -1.75503004    
 O    3.61678004       4.50946999       2.22310996    
 O    3.72570992       4.44752979       6.13862991    
 O    4.03854990       4.83205986       9.42560005    
 O    3.68899012       5.13429022       13.0292902    
 O    4.62494993       6.56464005      -1.81417000    
 O    4.69353008       6.46800995       1.69915998    
 O    4.92528009       5.92519999       4.79305983    
 O    3.54381990       7.36009979       7.95128012    
 O    4.28880978       7.18423986       13.2685404    
 O    5.87076998       8.33203030      -1.88132000    
 O    5.80070019       8.27879047       2.24534988    
 O    5.84797001       8.13284969       5.62774992    
 O    5.59711981       8.22612000       8.80937958    
 O    6.02466011       8.17714024       12.2987499    
 O    3.56751990      0.916230023      -1.67297006    
 O    3.69203997      0.882059991       2.12613010    
 O    3.69655991      0.886340022       5.89031982    
 O    3.66621995      0.962559998       8.92683029    
 O    3.56070995      0.769280016       12.6622200    
 O    4.79016018       2.77361989      -1.82053006    
 O    4.71655989       2.69420004       1.95439005    
 O    4.64738989       2.63266993       5.61634016    
 O    4.74089003       2.84349990       9.20905018    
 O    4.64071989       3.00703001       13.0693903    
 O    5.74947977       4.74890995      -1.87521005    
 O    5.84406996       4.44633007       1.89469004    
 O    5.84846020       4.42199993       5.53537989    
 O    5.59148979       4.76840019       8.19229031    
 O    5.17845011       3.73881006       14.0325699    
 O    6.85112000       6.44717979      -1.83380997    
 O    6.92523003       6.43696022       2.22330999    
 O    6.80357981       6.50843000       5.88186979    
 O    6.14520979       6.37220001       9.52441978    
 O    7.01883984       6.42128992       13.4736996    
 O    8.03530025       8.03240967      -1.82211006    
 O    7.93262005       8.24458981       2.18506002    
 O    7.89006996       8.22628021       6.00719976    
 O    7.82854986       8.00669003       9.46224022    
 O    7.90505981       8.53942966       12.9332104    
 O    5.69595003      0.970499992      -1.91700995    
 O    5.84595013      0.926779985       2.46799994    
 O    5.66578007      0.964559972       5.80473995    
 O    5.87526989      0.988319993       9.65620041    
 O    5.71253014      0.884779990       12.4037504    
 O    6.63892984       3.15107989      -2.10782003    
 O    6.91775990       2.59537005       2.66551995    
 O    6.90969992       2.63383007       5.80888987    
 O    6.61898994       2.50811005       8.38187981    
 O    7.09378004       2.99210000       12.9537001    
 O    7.83675003       4.49517012      -1.94909000    
 O    7.95981979       4.55816984       2.02832007    
 O    8.06365967       4.57968998       5.59608984    
 O    7.89066982       4.32925987       8.93591022    
 O    7.68475008       4.99540997       12.9214897    
 O    9.06311989       6.24178982      -1.65661001    
 O    9.01095963       6.39588022       2.14956999    
 O    9.01850033       6.49688005       5.73710012    
 O    8.75714016       6.24390984       8.87712002    
 O    9.30747986       6.89863014       12.8146601    
 O    9.98388004       8.29761982      -1.59435999    
 O    10.0582199       8.22661972       2.11278009    
 O    10.0388699       8.15614033       5.94896984    
 O    9.97723007       8.20592022       9.06567955    
 O    9.91224957       7.92108011       12.9794598    
 O    8.23647022      0.313690007      -2.13911009    
 O    7.82965994      0.981029987       1.17917001    
 O    7.89542007      0.830290020       5.66400003    
 O    7.89017010      0.741890013       8.65015984    
 O    7.79010010      0.699899971       13.5853701    
 O    9.03240967       2.71322989      -1.84450996    
 O    8.91326046       2.68140006       2.42985010    
 O    9.03905010       2.82325006       5.53540993    
 O    9.00387955       2.48446989       8.59088993    
 O    9.16998005       2.57474995       12.5092802    
 O    9.97006989       4.69360018      -1.63723004    
 O    10.0399303       4.55331993       2.15545988    
 O    10.0554705       4.59604979       6.05135012    
 O    9.94906044       4.60106993       9.58242035    
 O    10.3407698       4.51561022       12.9517002    
 O    11.1277199       6.42298985      -1.64177001    
 O    11.0503998       6.40791988       2.11118007    
 O    11.0687304       6.34462976       5.93500996    
 O    11.2359800       6.49802017       9.03363991    
 O    11.4848804       6.49601984       12.8138399    
 O    11.9497604       8.20372963      -1.87256002    
 O    12.2067299       8.32993984       2.45197010    
 O    11.9924898       8.39892960       5.68837023    
 O    12.4360104       8.21821022       9.48075008    
 O    12.3975296       8.27322960       12.7768497    
 O    10.1264696      0.996619999      -1.81458998    
 O    9.86235046      0.886030018       2.37566996    
 O    10.0030098      0.804229975       5.80795002    
 O    10.0698500      0.892080009       9.31943035    
 O    9.88535023       1.00922000       12.8748703    
 O    11.0337696       2.95792007      -1.77993000    
 O    11.0759697       2.72477007       2.07295990    
 O    11.1733103       2.73836994       5.80580997    
 O    11.1220798       2.80186009       9.41256046    
 O    11.0511703       2.70603991       12.8713198    
 O    12.2070198       4.48641014      -1.61286998    
 O    12.0801296       4.58177996       2.13205004    
 O    12.0699902       4.62660980       5.94628000    
 O    12.2814302       4.58320999       8.94908047    
 O    12.0144997       4.38156986       12.8760099    
 O    13.0786600       6.25946999      -1.84193003    
 O    13.1025200       6.41364002       2.23465991    
 O    13.3610296       6.20623016       5.58299017    
 O    13.5047903       6.30796003       9.86550045    
 O    12.7954998       6.27754021       12.9411602    
 O    14.2194996       8.10639954      -1.76692998    
 O    14.2242002       8.21737957       1.31208003    
 O    14.1212101       8.41427994       4.80718994    
 O    14.3235397       8.48929977       10.3246698    
 O    14.6269503       7.97507000       14.1667805    
 O    7.45311022       2.63865995       14.3882303    
 O    6.18917990       5.87431002       14.2947197    
