          12
 Energy:  -18.722076699999999      en  -18.680216699999999      edisp  -4.1860000000000001E-002
 X   0.00000000       0.00000000       0.00000000    
 X   14.5000000       0.00000000       0.00000000    
 X   0.00000000       14.5000000       0.00000000    
 X   0.00000000       0.00000000       14.5000000    
 X   14.5000000       14.5000000       0.00000000    
 X   14.5000000       0.00000000       14.5000000    
 X   0.00000000       14.5000000       14.5000000    
 X   14.5000000       14.5000000       14.5000000    
 O    0.00000000       0.00000000       0.00000000    
 O    1.20700002       0.00000000       0.00000000    
 O    0.00000000       0.00000000       1.89999998    
 O    1.20700002       0.00000000       1.89999998    
