         279
 Energy:  -2019.2065265000001      en  -1966.3402965000000      edisp  -52.866230000000002     
 X   0.00000000       0.00000000       0.00000000    
 X   14.4150839       0.00000000       0.00000000    
 X  -7.20754194       12.4838276       0.00000000    
 X   0.00000000       0.00000000       31.1162548    
 X   7.20754194       12.4838276       0.00000000    
 X   14.4150839       0.00000000       31.1162548    
 X  -7.20754194       12.4838276       31.1162548    
 X   7.20754194       12.4838276       31.1162548    
 Al  -5.37999999E-03  -3.53000010E-03   1.97547996    
 Al  -6.63999980E-03   2.76952004       1.00433004    
 Al  -4.43000020E-03   2.76981997       4.15146017    
 Al   2.39750004       1.38375998       2.24456000    
 Al   2.39873004       1.38424003       6.28521013    
 Al  -4.53000003E-03  -5.49999997E-03   4.60620022    
 Al   1.62999996E-03  -4.29999985E-04   8.51673985    
 Al  -7.40000000E-03   2.76877999       6.81318998    
 Al   5.69000002E-03   2.77730989       10.8625298    
 Al   2.40470004       1.38574004       8.95452976    
 Al   2.40491009       1.39682996       12.1153603    
 Al   2.85000005E-03  -2.49999994E-03   11.1581001    
 Al  -2.40773010       4.15805006       1.97433996    
 Al  -2.40795994       6.93234015       1.00520003    
 Al  -2.40720010       6.93136978       4.15429020    
 Al  -4.93999990E-03   5.54498005       2.24210000    
 Al  -6.14999980E-03   5.54703999       6.27119017    
 Al  -2.40935993       4.15557003       4.60432005    
 Al  -2.41129994       4.15689993       8.51570034    
 Al  -2.41476011       6.93226004       6.81824017    
 Al  -2.40651011       6.93025017       10.8794603    
 Al  -1.71399992E-02   5.53303003       8.93155003    
 Al   9.75999981E-03   5.54348993       12.1246700    
 Al  -2.40251994       4.15688992       11.1559401    
 Al  -4.80950022       8.31900978       1.97685003    
 Al  -4.81082010       11.0934601       1.00665998    
 Al  -4.80883980       11.0936298       4.15839005    
 Al  -2.40779996       9.70701027       2.24618006    
 Al  -2.40521002       9.70724964       6.29321003    
 Al  -4.80853987       8.31941986       4.60832024    
 Al  -4.80885983       8.31663990       8.52628994    
 Al  -4.80671978       11.0925503       6.82587004    
 Al  -4.80398989       11.0962400       10.8947496    
 Al  -2.40892005       9.70897007       8.96667957    
 Al  -2.40206003       9.70781040       12.1321602    
 Al  -4.81100988       8.31762028       11.1673498    
 Al   4.79912996      -2.63000000E-03   1.97473001    
 Al   4.80098009       2.77054000       1.00441003    
 Al   4.80197001       2.77111006       4.15371990    
 Al   7.20292997       1.38396001       2.24727988    
 Al   7.20365000       1.38433003       6.29689980    
 Al   4.80142021      -3.01999995E-03   4.60523987    
 Al   4.80494022      -1.68999995E-03   8.51828957    
 Al   4.80526018       2.76849008       6.81630993    
 Al   4.81162024       2.78511000       10.8628197    
 Al   7.21051979       1.38291001       8.96926975    
 Al   7.20556021       1.38935995       12.1346302    
 Al   4.80579996       2.68999999E-03   11.1590204    
 Al   2.39763999       4.15794992       1.96867001    
 Al   2.39844990       6.93362999       1.00135005    
 Al   2.39831996       6.93300009       4.14631987    
 Al   4.80087996       5.54487991       2.24428010    
 Al   4.80218983       5.54299021       6.29323006    
 Al   2.39962006       4.15744019       4.59790993    
 Al   2.39751005       4.16244984       8.47455978    
 Al   2.40005994       6.93115997       6.80187988    
 Al   2.34389997       6.91945982       10.7612200    
 Al   4.81102991       5.54199982       8.98038960    
 Al   4.84443998       5.46624994       12.5132799    
 Al   2.42663002       4.16946983       11.1016502    
 Al  -4.73000016E-03   8.32013035       1.96984994    
 Al  -5.90000022E-03   11.0959501       1.00455999    
 Al  -4.36000014E-03   11.0947199       4.15636015    
 Al   2.39762998       9.70748043       2.24463010    
 Al   2.39963007       9.70635986       6.28464985    
 Al  -7.00999983E-03   8.32275009       4.59921980    
 Al  -7.79000018E-03   8.31727028       8.48530960    
 Al  -1.10999995E-03   11.0965700       6.82155991    
 Al  -2.09999998E-04   11.0950298       10.8853197    
 Al   2.39925003       9.70987034       8.95411015    
 Al   2.40351009       9.69157982       12.1226797    
 Al  -9.27999988E-03   8.32658005       11.1224499    
 Al   9.60519981      -2.91000004E-03   1.97702003    
 Al   9.60513020       2.77073002       1.00571001    
 Al   9.60529995       2.77016997       4.16084003    
 Al   12.0071497       1.38347995       2.24747992    
 Al   12.0079803       1.38336003       6.29737997    
 Al   9.60622978      -2.05000001E-03   4.60757017    
 Al   9.60921955      -3.47000011E-03   8.52565956    
 Al   9.60499001       2.76979995       6.82873011    
 Al   9.60752010       2.76955009       10.9001904    
 Al   12.0099401       1.38334000       8.97062969    
 Al   12.0183697       1.38340998       12.1364098    
 Al   9.60902023      -5.89000015E-03   11.1696901    
 Al   7.20283985       4.15768003       1.97547996    
 Al   7.20358992       6.93229008       1.00607002    
 Al   7.20410013       6.93135977       4.15821981    
 Al   9.60501957       5.54477978       2.24784994    
 Al   9.60632038       5.54309988       6.30071020    
 Al   7.20576000       4.15733004       4.60706997    
 Al   7.19722986       4.15384007       8.51644039    
 Al   7.20806980       6.92981005       6.82304001    
 Al   7.19289017       6.91858006       10.9058199    
 Al   9.60198021       5.54288006       8.97507954    
 Al   9.60921955       5.54276991       12.1398401    
 Al   7.19996977       4.16169024       11.1535397    
 Al   4.80065012       8.31945992       1.97346997    
 Al   4.80004978       11.0924196       1.00562000    
 Al   4.80040979       11.0935297       4.15837002    
 Al   7.20342016       9.70604038       2.24826002    
 Al   7.20576000       9.70592022       6.29615021    
 Al   4.80454016       8.31869030       4.60320997    
 Al   4.80604982       8.31027985       8.48085976    
 Al   4.80534983       11.0961199       6.82479000    
 Al   4.80532980       11.1035500       10.8905296    
 Al   7.21429014       9.70903969       8.97113037    
 Al   7.21156979       9.70569992       12.1659899    
 Al   4.84954977       8.36260033       11.0951500    
 O    1.49133003      -7.67000020E-03   3.26430988    
 O    3.21007991      0.103239998       1.09421003    
 O  -0.750680029       1.29280996       3.26345992    
 O    1.64698005       2.86335993       3.25879002    
 O    3.10065007       2.72767997       1.09154999    
 O   0.880850017       1.31847000       1.09415996    
 O    3.87500000       1.37433004       7.64407015    
 O   0.726440012       1.49170995       5.45729017    
 O    1.67005002       2.65844989       7.62581015    
 O    1.66038001      0.111309998       7.64964008    
 O   0.732280016       4.04160023       5.44797993    
 O   -1.47802997       2.77201009       5.46125984    
 O    1.52857995       2.85256004       11.9906301    
 O   -1.66057003       2.86144996       9.86126995    
 O  -0.806129992       4.05347013       12.0298500    
 O  -0.695230007       1.43199003       12.0357399    
 O   0.751030028       1.28973997       9.84984970    
 O    3.30875993       4.61000018E-03   9.86561966    
 O  -0.912940025       4.15320015       3.26047993    
 O   0.807240009       4.26334000       1.09115005    
 O   -3.15448999       5.45473003       3.26398993    
 O  -0.756709993       7.02583981       3.25968003    
 O   0.698059976       6.89080000       1.09090996    
 O   -1.52146995       5.48088980       1.09331000    
 O    1.45948994       5.53672981       7.61007023    
 O   -1.67883003       5.65489006       5.45293999    
 O  -0.742049992       6.82193995       7.62656021    
 O  -0.755750000       4.27105999       7.63375998    
 O   -1.66987002       8.20623016       5.45817995    
 O   -3.87947989       6.93615007       5.46702003    
 O  -0.874390006       6.99388981       12.0074501    
 O   -4.06526995       7.02059984       9.87133026    
 O   -3.21364999       8.21142960       12.0439901    
 O   -3.10261989       5.58675003       12.0426702    
 O   -1.65786004       5.44920015       9.84875011    
 O   0.901619971       4.15597010       9.81252956    
 O   -3.31469011       8.31585026       3.26490998    
 O   -1.59543002       8.42652988       1.09338999    
 O   -5.55396986       9.61585999       3.26721001    
 O   -3.15834999       11.1865301       3.26437998    
 O   -1.70579004       11.0522404       1.09516001    
 O   -3.92378998       9.64247990       1.09609997    
 O  -0.936609983       9.70191002       7.64189005    
 O   -4.07637978       9.81715012       5.46696997    
 O   -3.13559008       10.9846601       7.65631008    
 O   -3.14994001       8.43455982       7.65574980    
 O   -4.06885004       12.3644896       5.46150017    
 O   -6.27973986       11.0965796       5.46620989    
 O   -3.28619003       11.1629696       12.0485697    
 O   -6.46146011       11.1857204       9.87104988    
 O   -5.61659002       12.3836098       12.0445995    
 O   -5.50419998       9.75022984       12.0591002    
 O   -4.05613995       9.61417007       9.87471008    
 O   -1.50233996       8.32332993       9.85109997    
 O    6.29674006      -7.04000005E-03   3.26455998    
 O    8.01653957      0.104640000       1.09621000    
 O    4.05629015       1.29253995       3.26259995    
 O    6.45371008       2.86262989       3.26373005    
 O    7.90521002       2.72817993       1.09573996    
 O    5.68725014       1.31920004       1.09461999    
 O    8.67973995       1.37627006       7.66144991    
 O    5.53505993       1.49317002       5.46136999    
 O    6.47941017       2.65517998       7.64363003    
 O    6.46686983      0.110210001       7.65619993    
 O    5.54441977       4.04293013       5.45760012    
 O    3.33069992       2.77305007       5.45270014    
 O    6.31602001       2.84191990       12.0497999    
 O    3.15553999       2.86772990       9.82577038    
 O    4.00816011       4.06805992       11.9765596    
 O    4.10521984       1.43842995       12.0305996    
 O    5.55977011       1.28995001       9.86244011    
 O    8.11612988      -1.44000002E-03   9.87234020    
 O    3.89456010       4.15340996       3.25900006    
 O    5.61454010       4.26416016       1.09405005    
 O    1.65332997       5.45504999       3.25694990    
 O    4.05128002       7.02591991       3.25992990    
 O    5.50354004       6.89025021       1.09387004    
 O    3.28491998       5.48206997       1.09140003    
 O    6.27658987       5.54297018       7.65210009    
 O    3.13218999       5.65636015       5.44955015    
 O    4.07336998       6.82237005       7.62958002    
 O    4.06492996       4.27349997       7.62736988    
 O    3.13953996       8.20646000       5.45273018    
 O   0.925520003       6.93997002       5.44619989    
 O    3.95337009       6.94636011       11.9210796    
 O   0.726029992       7.02954006       9.78870964    
 O    1.60532999       8.19501019       11.9589701    
 O    1.70033002       5.60199022       11.9435101    
 O    3.13142991       5.45944977       9.79216003    
 O    5.72959995       4.14760017       9.82602024    
 O    1.49116004       8.31818962       3.25823998    
 O    3.21173000       8.42733002       1.09287000    
 O  -0.749490023       9.61723995       3.26297998    
 O    1.64763999       11.1879597       3.26490998    
 O    3.09998012       11.0522299       1.09545004    
 O   0.880980015       9.64500046       1.09266996    
 O    3.87267995       9.70049000       7.64607000    
 O   0.727980018       9.81929016       5.45877981    
 O    1.67173004       10.9867296       7.65184021    
 O    1.66026998       8.43750000       7.63018990    
 O   0.736360013       12.3667603       5.46646023    
 O   -1.47570002       11.0996504       5.46314001    
 O    1.51773000       11.1450796       12.0458002    
 O   -1.65929997       11.1832104       9.86674023    
 O  -0.812129974       12.3755703       12.0446301    
 O  -0.699039996       9.74308968       12.0329800    
 O   0.745670021       9.61553955       9.84220028    
 O    3.31630993       8.30683994       9.83957958    
 O    11.1011496      -5.47999982E-03   3.26711988    
 O    12.8200102      0.102399997       1.09625006    
 O    8.86093044       1.29358006       3.26713991    
 O    11.2559605       2.86435008       3.26657009    
 O    12.7081699       2.72748995       1.09451997    
 O    10.4915199       1.31973004       1.09686995    
 O    13.4800196       1.37748003       7.65184021    
 O    10.3378496       1.49298000       5.46900988    
 O    11.2751999       2.65833998       7.65826988    
 O    11.2696505      0.110179998       7.66079998    
 O    10.3456402       4.04183006       5.46853018    
 O    8.13669014       2.77449012       5.46713018    
 O    11.1300497       2.83527994       12.0498600    
 O    7.95357990       2.85301995       9.87617970    
 O    8.79178047       4.04968023       12.0499897    
 O    8.90799046       1.42131996       12.0575504    
 O    10.3628702       1.28584003       9.87827015    
 O    12.9183903       2.77999998E-03   9.87147045    
 O    8.69851971       4.15325022       3.26707006    
 O    10.4179602       4.26423979       1.09563005    
 O    6.45989990       5.45478010       3.26402998    
 O    8.85521030       7.02524996       3.26648998    
 O    10.3072100       6.88968992       1.09619999    
 O    8.09014988       5.48088980       1.09598005    
 O    11.0732203       5.53808022       7.65321016    
 O    7.93865013       5.65436983       5.46682978    
 O    8.87493038       6.82125998       7.66087008    
 O    8.86355972       4.27094984       7.66223001    
 O    7.94642019       8.20411015       5.46682978    
 O    5.73542976       6.93581009       5.45990992    
 O    8.71910000       6.99532986       12.0569696    
 O    5.54220009       7.04025984       9.85272026    
 O    6.38916016       8.21642971       12.0383101    
 O    6.49148989       5.57238007       12.0459204    
 O    7.95516014       5.45387983       9.87759972    
 O    10.5124197       4.15985012       9.87174034    
 O    6.29698992       8.31604958       3.26536989    
 O    8.01679993       8.42574024       1.09660995    
 O    4.05752993       9.61798000       3.26312995    
 O    6.45300007       11.1873102       3.26676011    
 O    7.90415001       11.0504503       1.09630001    
 O    5.68835020       9.64220047       1.09524000    
 O    8.67885017       9.70032978       7.66013002    
 O    5.53466988       9.81661034       5.46509981    
 O    6.47735977       10.9856396       7.65582991    
 O    6.46939993       8.43702030       7.64683008    
 O    5.54040003       12.3647699       5.46718979    
 O    3.33056998       11.0993500       5.46393013    
 O    6.32246017       11.1557999       12.0476198    
 O    3.14637995       11.1768703       9.87040043    
 O    3.99356008       12.3705702       12.0538797    
 O    4.10429001       9.72733021       12.0268402    
 O    5.55479002       9.62841988       9.84976006    
 O    8.11112976       8.32334995       9.87499046    
 O    3.99232006       6.73618984       13.4312897    
