         262
 Energy:  -1010.1467023000000     
 X   0.00000000       0.00000000       0.00000000    
 X   0.00000000      -17.1805725       0.00000000    
 X   0.00000000      -8.59028625      -14.8788128    
 X   30.0000000       0.00000000       0.00000000    
 X   0.00000000      -25.7708588      -14.8788128    
 X   30.0000000      -17.1805725       0.00000000    
 X   30.0000000      -8.59028625      -14.8788128    
 X   30.0000000      -25.7708588      -14.8788128    
 Al   16.2834892      -12.9555302      -9.13047981    
 Al   16.2311897      -14.3824596      -6.56967020    
 Al   16.2413998      -15.7738199      -4.10785007    
 Al   16.2241802      -17.1824799      -1.65181994    
 Al   16.2223301      -18.6247807      -4.12049007    
 Al   16.2231998      -20.0400600      -6.60596991    
 Al   16.2225704      -18.6091099      -9.09953022    
 Al   16.2274895      -17.1790600      -11.5700798    
 Al   16.2212791      -15.7539101      -14.0431299    
 Al   16.2140007      -18.6160202      -14.0461197    
 Al   16.2152691      -21.4696198      -14.0450296    
 Al   16.2266293      -22.9044800      -11.5687103    
 Al   16.2210407      -21.4733791      -9.09801006    
 Al   13.8973303      -20.0417900      -9.92518997    
 Al   13.8951397      -18.6188908      -12.4011297    
 Al   11.6410999      -20.0434799      -13.2238197    
 Al   11.6358604      -21.4783401      -10.7476501    
 Al   9.34829044      -22.9051304      -11.5731001    
 Al   9.34580040      -21.4751301      -14.0502596    
 Al   9.34776974      -24.3385601      -14.0512800    
 Al   11.6364803      -22.9077892      -13.2194405    
 Al   13.8953199      -21.4676609      -12.4014597    
 Al   16.2135201      -20.0427494      -11.5772800    
 Al   16.2404709      -17.2106495      -6.59921980    
 Al   13.9119501      -15.8036900      -7.42907000    
 Al   13.9090099      -17.2001209      -4.94441986    
 Al   11.6388102      -18.6171207      -5.78149986    
 Al   11.6354799      -17.1818810      -8.26556969    
 Al   9.34692001      -18.6128407      -9.09463024    
 Al   9.34862041      -17.1814995      -11.5732403    
 Al   7.05568981      -18.6180000      -12.4017496    
 Al   7.05768013      -20.0441399      -9.92798042    
 Al   4.79066992      -21.4771099      -10.7558002    
 Al   4.79057980      -20.0440292      -13.2256603    
 Al   2.47744012      -21.4748402      -14.0508699    
 Al   2.47272992      -22.9047298      -11.5740404    
 Al   2.47648001      -24.3360004      -14.0541401    
 Al   4.79090023      -22.9001408      -13.2200098    
 Al   7.05526018      -21.4711304      -12.4024200    
 Al   9.34517956      -20.0436897      -11.5738602    
 Al   11.6362801      -18.6057491      -10.7471304    
 Al   13.9008799      -17.1851997      -9.92127037    
 Al   11.6424198      -15.7439299      -10.7419596    
 Al   13.9004898      -15.7538500      -12.4000502    
 Al   13.9122400      -12.9059601      -12.4483500    
 Al   16.2326202      -11.4502697      -11.6463604    
 Al   16.2418098      -10.0140104      -14.0819597    
 Al   16.2418995      -12.8895903      -14.0812397    
 Al   16.2528496      -14.3192596      -11.5902300    
 Al   13.9251099      -14.3280497      -9.92350006    
 Al   16.2532597      -15.7676897      -9.08213043    
 Al   9.34648037      -18.6133404      -14.0500898    
 Al   9.34642029      -15.7508297      -14.0507402    
 Al   11.6354704      -14.3178701      -13.2262697    
 Al   11.6357002      -12.8793898      -10.7643499    
 Al   11.6367397      -10.0234699      -10.7634296    
 Al   11.6380100      -8.58839989      -13.2260504    
 Al   13.9011602      -7.15013981      -12.4000702    
 Al   13.9251900      -8.57374954      -9.92278004    
 Al   16.2831497      -9.94359970      -9.13150978    
 Al   16.2521095      -7.13117981      -9.07956028    
 Al   16.2315693      -8.51706028      -6.56788015    
 Al   16.2522907      -10.0008698      -4.11263990    
 Al   16.2278500      -11.4515696      -1.64862001    
 Al   13.9022999      -12.8845596      -2.46862006    
 Al   13.8983297      -14.3109999       5.72999986E-03
 Al   11.6335802      -15.7483597     -0.824410021    
 Al   11.6363297      -14.3174105      -3.30070996    
 Al   9.34574986      -15.7489004      -4.12938976    
 Al   9.34006977      -14.3261404      -6.60604000    
 Al   7.05673981      -15.7497902      -7.44162989    
 Al   7.04783010      -14.3249798      -9.92383003    
 Al   4.79164982      -15.7618599      -10.7525196    
 Al   4.79305983      -14.3207302      -13.2256699    
 Al   7.05670023      -12.8877401      -12.3989496    
 Al   9.34014034      -11.4530001      -11.5831299    
 Al   9.34683037      -10.0191202      -14.0529404    
 Al   9.34547997      -12.8878002      -14.0521097    
 Al   11.6422100      -11.4526901      -13.2480497    
 Al   13.9133701      -9.99882030      -12.4488497    
 Al   16.2541695      -8.58143997      -11.5925198    
 Al   9.34644032      -21.4743004      -9.09438992    
 Al   9.34994984      -20.0436897      -6.61249018    
 Al   9.35799026      -18.6144199      -4.13164997    
 Al   9.35015011      -17.1815491      -1.65278995    
 Al   7.06883001      -15.7450104      -2.47644997    
 Al   7.06461000      -12.8836298      -2.47202992    
 Al   7.04828978      -11.4537296      -4.94858980    
 Al   4.79722977      -12.8898897      -5.77807999    
 Al   4.81679010      -11.4534101      -8.26597023    
 Al   2.49265003      -12.8830795      -9.09057999    
 Al   2.48393989      -14.3198299      -6.61092997    
 Al   2.48727989      -15.7520103      -4.12980986    
 Al   4.79484987      -14.3149300      -3.30312991    
 Al   4.79225016      -12.8766699     -0.822480023    
 Al   4.79978991      -15.7508602     -0.827520013    
 Al   7.05869007      -14.3110704       4.18999977E-03
 Al   9.34788990      -14.3167295      -1.65039003    
 Al   9.34955978      -11.4533300      -1.64907002    
 Al   11.6380196      -10.0257502     -0.825890005    
 Al   13.8978796      -8.59549046       7.49999983E-03
 Al   13.9090500      -7.14704990      -2.46618009    
 Al   13.9105101      -5.70128012      -4.94239998    
 Al   13.9086103      -21.4600697      -7.43360996    
 Al   11.6364603      -5.72076988      -8.26375008    
 Al   11.6408396      -7.13411999      -5.77054977    
 Al   9.34008026      -8.57841015      -6.60467005    
 Al   9.34879971      -7.15787983      -9.09037971    
 Al   7.04916000      -8.58139038      -9.92409992    
 Al   7.06290007      -24.3322601      -12.4009399    
 Al   4.79403019      -8.58763027      -13.2263403    
 Al   4.79734993      -10.0166197      -10.7540598    
 Al   2.48428988      -11.4536200      -11.5760603    
 Al   2.48756003      -10.0202904      -14.0568800    
 Al   2.48641992      -12.8869305      -14.0552301    
 Al   2.47613001      -15.7515402      -14.0535898    
 Al   2.47229004      -17.1827602      -11.5740700    
 Al   2.47621989      -18.6156101      -9.09409046    
 Al   4.79387999      -17.1824493      -8.27013016    
 Al   7.06817007      -18.6133595      -7.44564009    
 Al   4.81059980      -18.6163406      -5.77980995    
 Al   7.06755018      -17.1850891      -4.95778990    
 Al   4.80102015      -15.7574797      -5.78149986    
 Al   7.05774021      -14.3158102      -4.95694017    
 Al   9.34939003      -12.8848896      -4.13289022    
 Al   11.6433601      -11.4522495      -3.30660009    
 Al   9.34766960      -10.0205402      -4.13172007    
 Al   11.6359997      -9.99890041      -5.77563000    
 Al   13.9249401      -11.4512396      -4.94004011    
 Al   13.9549599      -9.88187027      -7.35550022    
 Al   11.4911299      -11.4516296      -8.26321030    
 Al   9.31414986      -12.8966103      -9.09914017    
 Al   9.31437969      -10.0072203      -9.09871960    
 Al   7.04741001      -10.0176201      -7.43657017    
 Al   7.05670023      -7.15683985      -7.44140005    
 Al   7.06814003      -4.29407978      -7.44558001    
 Al   7.06688976      -5.72314978      -4.95690012    
 Al   4.80072021      -7.14965010      -5.78186989    
 Al   4.79331017      -8.59309959      -3.30281997    
 Al   4.79138994      -10.0315599     -0.821969986    
 Al   7.05767012      -8.59866047       5.52000012E-03
 Al   7.06788015      -7.16342020      -2.47550011    
 Al   9.34504032      -7.15801001      -4.12775993    
 Al   9.35809994      -4.29242992      -4.13105011    
 Al   11.6415100      -2.86255002      -3.30423999    
 Al   13.9041500      -1.43453002      -2.47926998    
 Al   13.9100199      -2.86244988      -2.22500004E-02
 Al   11.6390495      -4.29382992     -0.832530022    
 Al   9.35007000      -5.72626019      -1.65202999    
 Al   11.6328096      -7.15908003     -0.823249996    
 Al   11.6352797      -8.58681965      -3.29927993    
 Al   13.9012499      -10.0197802      -2.46742010    
 Al   16.2220192      -8.59523010      -1.64423001    
 Al   16.2263699      -5.71968985      -1.65026999    
 Al   16.2250500      -4.27347994      -4.11857986    
 Al   16.2427502      -7.12746000      -4.10387993    
 Al   16.2422905      -5.68821001      -6.59641981    
 Al   13.9123802      -7.09721994      -7.42628002    
 Al   13.9117699      -8.55037975      -4.90887022    
 Al   7.04792976      -12.8881798      -7.43642998    
 Al   9.31404972      -11.4517298      -6.59610987    
 Al   11.6372604      -12.8810596     -0.827289999    
 Al   13.8965101      -11.4539604       1.23399999E-02
 Al   13.9078703      -18.6222801      -7.43444014    
 Al   11.6327000      -20.0423393      -8.26683044    
 Al   2.47864008      -14.3163204      -11.5774403    
 Al   4.79632998      -12.8893604      -10.7536602    
 Al   7.04754019      -11.4528599      -9.92296028    
 Al   7.05786991      -10.0192699      -12.3991699    
 Al   9.34965992      -8.59039021      -11.5715704    
 Al   11.6429100      -7.16025019      -10.7409496    
 Al   13.9000301      -5.71687984      -9.92018032    
 Al   2.47794008      -15.7527905      -9.08963013    
 Al   4.79692984      -14.3256998      -8.26574039    
 Al   4.80154991      -11.4531097      -13.2366304    
 Al   2.48660994      -17.1846600      -6.61212015    
 Al   2.48960996      -20.0446205      -6.61005020    
 Al   2.47558999      -21.4728603      -9.09500027    
 Al   4.79853010      -20.0446796      -8.26476955    
 Al   4.79164982      -18.6111794      -10.7559004    
 Al   7.06372976      -17.1850700      -9.92465019    
 Al   9.34823036      -15.7463799      -9.09084988    
 Al   11.6366196      -14.3308601      -8.25018024    
 Al   13.9542198      -13.0184202      -7.35736990    
 Al   11.6362801      -12.9022903      -5.77648020    
 Al   11.6413498      -15.7681103      -5.77241993    
 Al   13.9119396      -14.3505898      -4.91088009    
 Al   16.2540092      -12.9011803      -4.11242008    
 Al   16.2252197      -14.3089504      -1.64500999    
 Al   13.9094200      -15.7568998      -2.46795011    
 Al   11.6390200      -17.1865597      -3.30105996    
 Al   2.49078989      -18.6139908      -4.13259983    
 Al   2.49042010      -17.1833096      -1.65488005    
 Al   4.81121016      -17.1888695      -3.30732989    
 Al   7.06220007      -15.7559996      -12.4002104    
 Al   9.34741020      -14.3151503      -11.5711098    
 Al   2.47711992      -20.0440693      -11.5734301    
 Al   2.47640991      -18.6130009      -14.0508499    
 Al   4.79116011      -17.1888409      -13.2200098    
 Al   2.47732997      -14.3181601      -1.64883006    
 Al   2.47263002      -11.4535303      -1.64910996    
 Al   2.47890997      -10.0182505      -4.13016987    
 Al   2.48416996      -8.58841991      -6.61099005    
 Al   2.47806001      -7.15421009      -9.09006977    
 Al   4.79323006      -5.72534990      -8.26902008    
 Al   4.79148006      -7.14737988      -10.7528296    
 Al   7.06235981      -22.9025097      -9.92525005    
 Al   2.47886992      -12.8903704      -4.12982988    
 Al   4.79204988      -11.4549599      -3.29099989    
 Al   7.06267023      -10.0248699      -2.47091007    
 Al   9.34644985      -8.59152985      -1.64895999    
 Al   4.79617977      -10.0178003      -5.77801991    
 Al   7.05647993      -8.59144020      -4.95648003    
 Al   2.49277997      -11.4549303      -6.61520004    
 Al   2.49316001      -10.0248604      -9.09136009    
 Al   4.79702997      -8.58111000      -8.26667976    
 Al   2.47862005      -8.59051037      -11.5788803    
 Al   7.05633020      -20.0447502      -14.8718796    
 Al   9.34531021      -17.1824207      -6.61397982    
 Al   9.34554005      -5.72253990      -6.61364985    
 Al   11.6400995      -4.28696012      -5.78068018    
 Al   13.9043703      -2.86058998      -4.95108986    
 Al   13.9059296      -4.28799009      -2.47913003    
 Al   16.2245808      -2.86005998      -1.66759002    
 Al   11.6367998      -17.1795807      -13.2192202    
 Al   11.6365299      -8.57122040      -8.24862957    
 Al   11.6398497      -5.71822023      -3.29959989    
 Al   13.9546499      -11.4514904      -10.0728397    
 Al   13.9082203      -5.72843981      -9.42999963E-03
 Al   16.2829704      -11.4509201      -6.52222013    
 Al   2.48678994      -5.72351980      -6.61295986    
 Al   2.49167991      -4.29395008      -4.13294983    
 Al   4.81216002      -2.86444998      -3.30686998    
 Al   7.08295012      -1.43648005      -2.48283005    
 Al   7.06773996      -2.86399007      -5.09000011E-03
 Al   4.81036997      -4.29090977     -0.833310008    
 Al   2.49065995      -5.72489977      -1.65497005    
 Al   4.79913998      -7.15778017     -0.827319980    
 Al   7.06812000      -5.73222017       2.15000007E-03
 Al   7.08186007      -4.29242992      -2.48205996    
 Al   9.35785961      -2.86335993      -1.65521002    
 Al   11.6402397      -1.43153000     -0.831809998    
 Al   13.9095297      -17.1762104      -9.46999993E-03
 Al   2.48674011      -7.15783024      -4.13050985    
 Al   4.81002998      -5.71966982      -3.30744004    
 Al   4.81093979      -4.29230022      -5.77969980    
 Al   7.08261013      -2.86412001      -4.95604992    
 Al   2.47638011      -8.59068966      -1.64897001    
 Al   2.49204993      -2.86309004      -1.65561998    
 Al   4.81190014      -1.43660998     -0.833260000    
 Al   7.06892014       4.61000018E-03   1.67999999E-03
 Al   16.2225304      -24.3310604      -14.0439396    
 O    13.3842201      -11.4505901      -8.26336002    
 O    16.9639091      -11.4497499      -8.26177025    
