         261
 Energy:  -1422.0846200000001      en  -1323.2950100000000      edisp  -98.789609999999996     
 X   0.00000000       0.00000000       0.00000000    
 X   0.00000000      -15.1462221       0.00000000    
 X   0.00000000      -7.57311106      -13.1170130    
 X   29.0000000       0.00000000       0.00000000    
 X   0.00000000      -22.7193336      -13.1170130    
 X   29.0000000      -15.1462221       0.00000000    
 X   29.0000000      -7.57311106      -13.1170130    
 X   29.0000000      -22.7193336      -13.1170130    
 Ni   3.13270998      -10.0974798      -5.82884979    
 Ni   3.13070989      -12.6218901      -10.2021599    
 Ni   3.12825990      -7.57212019      -1.45890999    
 Ni   3.13040996      -15.1464901      -5.82877016    
 Ni   3.12666011      -17.6705894      -10.2013397    
 Ni   3.12825990      -12.6228399      -1.45890999    
 Ni   3.13040996      -5.04848003      -5.82877016    
 Ni   3.13070989      -7.57307005      -10.2021599    
 Ni   3.12942004      -2.52436996      -1.45815003    
 Ni   5.10668993      -12.6220598      -7.28738022    
 Ni   5.09956980      -15.1449499      -11.6584501    
 Ni   5.10479021      -10.0974798      -2.91560006    
 Ni   5.10148001      -17.6705894      -7.28583002    
 Ni   5.09956980      -20.1962395      -11.6584501    
 Ni   5.10507011      -15.1471701      -2.91598010    
 Ni   5.10668993      -7.57289982      -7.28738022    
 Ni   5.10690022      -10.0974798      -11.6595802    
 Ni   5.10507011      -5.04779005      -2.91598010    
 Ni   7.06614017      -15.1466799      -8.74598026    
 Ni   7.06281996      -10.0974798       4.49999992E-04
 Ni   7.06969023      -12.6214504      -4.37250996    
 Ni   7.06614017      -5.04827976      -8.74598026    
 Ni   7.06629992       1.16999994E-03   3.30000010E-04
 Ni   7.06863022      -2.52436996      -4.37236977    
 Ni   7.07020998      -10.0974798      -8.74514008    
 Ni   7.06629992      -5.04991007       3.30000010E-04
 Ni   7.06969023      -7.57351017      -4.37250996    
 Ni   9.02711964      -17.6705894      -10.2026396    
 Ni   9.02740002      -12.6208897      -1.45677996    
 Ni   9.02929020      -15.1471701      -5.82880020    
 Ni   9.03073025      -7.57363987      -10.2020302    
 Ni   9.03098965      -2.52436996      -1.45846999    
 Ni   9.02929020      -5.04779005      -5.82880020    
 Ni   9.03073025      -12.6213198      -10.2020302    
 Ni   9.02740002      -7.57406998      -1.45677996    
 Ni   9.03481960      -10.0974798      -5.83038998    
 Ni   10.9892302      -20.1967697      -11.6571703    
 Ni   10.9920101      -15.1465902      -2.91454005    
 Ni   10.9886599      -17.6705894      -7.28850985    
 Ni   10.9913902      -10.0974798      -11.6603403    
 Ni   10.9920101      -5.04836988      -2.91454005    
 Ni   10.9991903      -7.57477999      -7.28863001    
 Ni   10.9892302      -15.1444101      -11.6571703    
 Ni   10.9912701      -10.0974798      -2.91909003    
 Ni   10.9991903      -12.6201897      -7.28863001    
 Ni   12.9510899       3.70000000E-03  -4.40000003E-04
 Ni   12.9577398      -2.52436996      -4.37147999    
 Ni   12.9510202      -5.05478001      -8.74466991    
 Ni   12.9510899      -5.05244017      -4.40000003E-04
 Ni   12.9516497      -7.57097006      -4.36701012    
 Ni   12.9746103      -10.0974798      -8.74724960    
 Ni   12.9527397      -10.0974798      -1.01000001E-03
 Ni   12.9516497      -12.6239901      -4.36701012    
 Ni   12.9510202      -15.1401796      -8.74466991    
 Ni   14.9345598      -2.52436996      -1.46170998    
 Ni   14.9257898      -5.03183985      -5.82800007    
 Ni   14.9261703      -7.56500006      -10.2159996    
 Ni   14.9231501      -7.57320976      -1.45020998    
 Ni   15.0308399      -10.0974798      -5.78954983    
 Ni   14.9261703      -12.6299696      -10.2159996    
 Ni   14.9231501      -12.6217604      -1.45020998    
 Ni   14.9257898      -15.1631203      -5.82800007    
 Ni   14.9258499      -17.6705894      -10.2036600    
 Ni   3.13040996      -6.30991983      -3.64388990    
 Ni   3.13270998      -8.83448982      -8.01642036    
 Ni   3.13040996      -11.3589201      -12.3890200    
 Ni   3.13070989      -11.3596802      -3.64355993    
 Ni   3.13070989      -13.8840904      -8.01597023    
 Ni   3.12666011      -16.4077301      -12.3886805    
 Ni   3.12942004      -16.4090195      -3.64326000    
 Ni   3.12825990      -18.9335499      -8.01436043    
 Ni   3.12825990      -21.4589100      -12.3884096    
 Ni   5.10668993      -8.83532047      -5.10081005    
 Ni   5.10668993      -11.3599005      -9.47350025    
 Ni   5.10148001      -6.30971003     -0.729420006    
 Ni   5.10690022      -13.8840504      -5.10104990    
 Ni   5.09956980      -16.4067993      -9.47284985    
 Ni   5.09956980      -11.3593397     -0.730390012    
 Ni   5.10507011      -3.78702998      -5.09968996    
 Ni   5.10479021      -6.31154013      -9.47305012    
 Ni   5.10507011      -1.26361001     -0.728999972    
 Ni   7.07020998      -11.3600702      -6.55826998    
 Ni   7.06614017      -13.8853903      -10.9305897    
 Ni   7.06614017      -8.83619022      -2.18512011    
 Ni   7.06629992      -16.4087105      -6.55967999    
 Ni   7.06281996      -18.9323902      -10.9310703    
 Ni   7.06629992      -13.8831701      -2.18531990    
 Ni   7.06969023      -6.31127977      -6.55877018    
 Ni   7.06969023      -8.83524990      -10.9304104    
 Ni   7.06863022      -3.78658009      -2.18615007    
 Ni   9.03073025      -13.8836899      -8.01554012    
 Ni   9.02711964      -16.4088497      -12.3880301    
 Ni   9.03073025      -11.3598499      -3.64411998    
 Ni   9.02740002      -18.9326801      -8.01712036    
 Ni   9.02740002      -21.4560909      -12.3877897    
 Ni   9.03098965      -16.4092903      -3.64310002    
 Ni   9.03481960      -8.83582020      -8.01564980    
 Ni   9.02929020      -11.3592901      -12.3895998    
 Ni   9.02929020      -6.30959988      -3.64329004    
 Ni   10.9892302      -16.4054298      -9.47303009    
 Ni   10.9892302      -11.3584995     -0.731490016    
 Ni   10.9913902      -13.8847103      -5.10066986    
 Ni   10.9912701      -6.31455994      -9.47130013    
 Ni   10.9920101      -1.26206005     -0.729219973    
 Ni   10.9920101      -3.78606009      -5.10092020    
 Ni   10.9991903      -11.3600502      -9.47124958    
 Ni   10.9886599      -6.31202984     -0.728079975    
 Ni   10.9991903      -8.83734989      -5.10179996    
 Ni   12.9527397      -18.9336491      -10.9303398    
 Ni   12.9510899      -13.8825703      -2.18274999    
 Ni   12.9510899      -16.4106293      -6.56149006    
 Ni   12.9516497      -8.83174992      -10.9353600    
 Ni   12.9577398      -3.78580999      -2.18659997    
 Ni   12.9516497      -6.30524015      -6.55931997    
 Ni   12.9510202      -13.8810196      -10.9256201    
 Ni   12.9510202      -8.83831024      -2.19140005    
 Ni   12.9746103      -11.3619003      -6.55721998    
 Ni   14.9231501      -21.4508400      -12.3918200    
 Ni   14.9345598      -16.4120998      -3.64147997    
 Ni   14.9231501      -18.9265594      -8.01965046    
 Ni   14.9257898      -11.3665705      -12.4038200    
 Ni   14.9257898      -6.30093002      -3.62986994    
 Ni   15.0308399      -8.80045033      -8.03606987    
 Ni   14.9258499      -16.4097404      -12.3875198    
 Ni   14.9261703      -11.3676300      -3.62965012    
 Ni   14.9261703      -13.9001198      -8.01603985    
 Ni   3.13285995      -7.57283020      -5.82961988    
 Ni   3.13285995      -10.0974798      -10.2024403    
 Ni   3.13072991      -5.04715014      -1.45835996    
 Ni   3.13285995      -12.6221304      -5.82961988    
 Ni   3.12579012      -15.1452398      -10.2015495    
 Ni   3.12579012      -10.0974798      -1.45858002    
 Ni   3.13072991      -17.6705894      -5.82795000    
 Ni   3.12579012      -20.1959400      -10.2015495    
 Ni   3.13072991      -15.1478100      -1.45835996    
 Ni   5.10539007      -10.0974798      -7.28723001    
 Ni   5.10408020      -12.6207104      -11.6596699    
 Ni   5.10408020      -7.57245016      -2.91582990    
 Ni   5.10408020      -15.1457396      -7.28619003    
 Ni   5.09845018      -17.6705894      -11.6595697    
 Ni   5.10408020      -12.6225204      -2.91582990    
 Ni   5.10408020      -5.04922009      -7.28619003    
 Ni   5.10408020      -7.57426023      -11.6596699    
 Ni   5.10434008      -2.52436996      -2.91489005    
 Ni   7.07025003      -12.6214304      -8.74442959    
 Ni   7.06331015      -7.57439995       7.39999989E-04
 Ni   7.07025003      -10.0974798      -4.37282991    
 Ni   7.06331015      -17.6705894      -8.74615955    
 Ni   7.06331015      -12.6205597       7.39999989E-04
 Ni   7.06909990      -15.1460400      -4.37243986    
 Ni   7.07025003      -7.57354021      -8.74442959    
 Ni   7.06909990      -2.52436996       2.09999998E-04
 Ni   7.06909990      -5.04892015      -4.37243986    
 Ni   9.02589989      -15.1464195      -10.2022305    
 Ni   9.02589989      -10.0974798      -1.45721996    
 Ni   9.03394032      -12.6215897      -5.82992983    
 Ni   9.02589989      -20.1947708      -10.2022305    
 Ni   9.02943993      -15.1465502      -1.45764005    
 Ni   9.02943993      -17.6705894      -5.82940006    
 Ni   9.03394032      -10.0974798      -10.2018204    
 Ni   9.02943993      -5.04840994      -1.45764005    
 Ni   9.03394032      -7.57336998      -5.82992983    
 Ni   10.9906902      -17.6705894      -11.6595697    
 Ni   10.9887600      -12.6217899      -2.91528010    
 Ni   10.9887600      -15.1458502      -7.28708982    
 Ni   10.9887600      -7.57342005      -11.6593199    
 Ni   10.9933004      -2.52436996      -2.91489005    
 Ni   10.9887600      -5.04910994      -7.28708982    
 Ni   10.9887600      -12.6215496      -11.6593199    
 Ni   10.9887600      -7.57317019      -2.91528010    
 Ni   11.0092001      -10.0974798      -7.28723001    
 Ni   12.9483404      -12.6177902       2.34999997E-03
 Ni   12.9550200      -15.1487999      -4.37085009    
 Ni   12.9483404      -17.6705894      -8.74936962    
 Ni   12.9550200      -2.52436996      -2.98000011E-03
 Ni   12.9550200      -5.04616022      -4.37085009    
 Ni   12.9871597      -7.59264994      -8.73340034    
 Ni   12.9483404      -7.57716990       2.34999997E-03
 Ni   12.9871597      -10.0974798      -4.39489985    
 Ni   12.9871597      -12.6023102      -8.73340034    
 Ni   14.9275398      -15.1471596      -1.45799005    
 Ni   14.9275398      -17.6705894      -5.82870007    
 Ni   14.9261799      -20.1910496      -10.2043800    
 Ni   14.9275398      -5.04780006      -1.45799005    
 Ni   14.9138203      -7.51555014      -5.79654980    
 Ni   14.9138203      -10.0974798      -10.2685900    
 Ni   14.9261799      -10.0974798      -1.45292997    
 Ni   14.9138203      -12.6794100      -5.79654980    
 Ni   14.9261799      -15.1501303      -10.2043800    
 Ni   3.13070989      -8.83528042      -3.64355993    
 Ni   3.13270998      -11.3604803      -8.01642036    
 Ni   3.12825990      -13.8822699      -12.3884096    
 Ni   3.13040996      -13.8850498      -3.64388990    
 Ni   3.12825990      -16.4076309      -8.01436043    
 Ni   3.12666011      -18.9334602      -12.3886805    
 Ni   3.12942004      -3.78593993      -3.64326000    
 Ni   3.13070989      -6.31088018      -8.01597023    
 Ni   3.13040996      -8.83603954      -12.3890200    
 Ni   5.10668993      -11.3596401      -5.10081005    
 Ni   5.10479021      -13.8834295      -9.47305012    
 Ni   5.09956980      -8.83563042     -0.730390012    
 Ni   5.10507011      -16.4079399      -5.09968996    
 Ni   5.09956980      -18.9343796      -9.47284985    
 Ni   5.10148001      -13.8852501     -0.729420006    
 Ni   5.10690022      -6.31091022      -5.10104990    
 Ni   5.10668993      -8.83506012      -9.47350025    
 Ni   5.10507011      -3.78513002     -0.728999972    
 Ni   7.06969023      -13.8836803      -6.55877018    
 Ni   7.06281996      -16.4088001      -10.9310703    
 Ni   7.06614017      -11.3587704      -2.18512011    
 Ni   7.06629992      -3.78625989      -6.55967999    
 Ni   7.06614017      -6.30956984      -10.9305897    
 Ni   7.06863022      -1.26215994      -2.18615007    
 Ni   7.07020998      -8.83489037      -6.55826998    
 Ni   7.06969023      -11.3597202      -10.9304104    
 Ni   7.06629992      -6.31178999      -2.18531990    
 Ni   9.02740002      -16.4085007      -8.01712036    
 Ni   9.02711964      -18.9323292      -12.3880301    
 Ni   9.02929020      -13.8853703      -3.64329004    
 Ni   9.03073025      -6.31127024      -8.01554012    
 Ni   9.02929020      -8.83568001      -12.3895998    
 Ni   9.03098965      -3.78567004      -3.64310002    
 Ni   9.03481960      -11.3591404      -8.01564980    
 Ni   9.02740002      -13.8851004      -12.3877897    
 Ni   9.03073025      -8.83510971      -3.64411998    
 Ni   10.9892302      -18.9357491      -9.47303009    
 Ni   10.9886599      -13.8829298     -0.728079975    
 Ni   10.9920101      -16.4088993      -5.10092020    
 Ni   10.9991903      -8.83491039      -9.47124958    
 Ni   10.9920101      -3.78667998     -0.729219973    
 Ni   10.9913902      -6.31024981      -5.10066986    
 Ni   10.9912701      -13.8803997      -9.47130013    
 Ni   10.9892302      -8.83646011     -0.731490016    
 Ni   10.9991903      -11.3576202      -5.10179996    
 Ni   12.9510202      -6.31394005      -10.9256201    
 Ni   12.9577398      -1.26293004      -2.18659997    
 Ni   12.9510899      -3.78432989      -6.56149006    
 Ni   12.9516497      -11.3632097      -10.9353600    
 Ni   12.9510899      -6.31239986      -2.18274999    
 Ni   12.9746103      -8.83306026      -6.55721998    
 Ni   12.9527397      -16.4075298      -10.9303398    
 Ni   12.9510202      -11.3566504      -2.19140005    
 Ni   12.9516497      -13.8897200      -6.55931997    
 Ni   14.9257898      -8.82839012      -12.4038200    
 Ni   14.9345598      -3.78286004      -3.64147997    
 Ni   14.9261703      -6.29484987      -8.01603985    
 Ni   14.9231501      -13.8903503      -12.3918200    
 Ni   14.9261703      -8.82732964      -3.62965012    
 Ni   15.0308399      -11.3945103      -8.03606987    
 Ni   14.9258499      -18.9314499      -12.3875198    
 Ni   14.9257898      -13.8940296      -3.62986994    
 Ni   14.9231501      -16.4146194      -8.01965046    
 O    16.0510807      -10.0974798      -7.28723001    
