         265
 Energy:  -1054.0159509000000      en  -968.24171090000004      edisp  -85.774240000000006     
 X   0.00000000       0.00000000       0.00000000    
 X   16.1980000       0.00000000       0.00000000    
 X   0.00000000       16.1980000       0.00000000    
 X   0.00000000       0.00000000       16.1980000    
 X   16.1980000       16.1980000       0.00000000    
 X   16.1980000       0.00000000       16.1980000    
 X   0.00000000       16.1980000       16.1980000    
 X   16.1980000       16.1980000       16.1980000    
 Al  -8.16000029E-02  -0.00000000       0.00000000    
 Al   1.40500003E-02   2.01069999       2.01069999    
 Al   2.02474999      -0.00000000       2.10634995    
 Al   2.02474999       2.10634995       0.00000000    
 Al  -9.13999975E-03  -0.00000000       4.06644011    
 Al   9.29999980E-04   2.02381992       6.07866001    
 Al   2.02474999      -0.00000000       6.06468010    
 Al   2.02474999       2.03389001       4.06644011    
 Al   4.29000007E-03  -0.00000000       8.09899998    
 Al   9.29999980E-04   2.02381992       10.1193399    
 Al   2.02474999      -0.00000000       10.1333199    
 Al   2.02474999       2.02045989       8.09899998    
 Al  -9.13999975E-03  -0.00000000       12.1315603    
 Al   1.40500003E-02   2.01069999       14.1872997    
 Al   2.02474999      -0.00000000       14.0916500    
 Al   2.02474999       2.03389001       12.1315603    
 Al  -9.13999975E-03   4.06644011       0.00000000    
 Al   9.29999980E-04   6.07866001       2.02381992    
 Al   2.02474999       4.06644011       2.03389001    
 Al   2.02474999       6.06468010       0.00000000    
 Al   1.73000002E-03   4.04192019       4.04192019    
 Al  -8.69999989E-04   6.07163000       6.07163000    
 Al   2.02474999       4.04902983       6.07457018    
 Al   2.02474999       6.07457018       4.04902983    
 Al   2.34999997E-03   4.04621983       8.09899998    
 Al  -8.69999989E-04   6.07163000       10.1263704    
 Al   2.02474999       4.04902983       10.1234303    
 Al   2.02474999       6.07710981       8.09899998    
 Al   1.73000002E-03   4.04192019       12.1560802    
 Al   9.29999980E-04   6.07866001       14.1741800    
 Al   2.02474999       4.06644011       14.1641102    
 Al   2.02474999       6.07457018       12.1489697    
 Al   4.29000007E-03   8.09899998       0.00000000    
 Al   9.29999980E-04   10.1193399       2.02381992    
 Al   2.02474999       8.09899998       2.02045989    
 Al   2.02474999       10.1333199       0.00000000    
 Al   2.34999997E-03   8.09899998       4.04621983    
 Al  -8.69999989E-04   10.1263704       6.07163000    
 Al   2.02474999       8.09899998       6.07710981    
 Al   2.02474999       10.1234303       4.04902983    
 Al  -3.47000011E-03   8.09899998       8.09899998    
 Al  -8.69999989E-04   10.1263704       10.1263704    
 Al   2.02474999       8.09899998       10.1208897    
 Al   2.02474999       10.1208897       8.09899998    
 Al   2.34999997E-03   8.09899998       12.1517801    
 Al   9.29999980E-04   10.1193399       14.1741800    
 Al   2.02474999       8.09899998       14.1775398    
 Al   2.02474999       10.1234303       12.1489697    
 Al  -9.13999975E-03   12.1315603       0.00000000    
 Al   1.40500003E-02   14.1872997       2.01069999    
 Al   2.02474999       12.1315603       2.03389001    
 Al   2.02474999       14.0916500       0.00000000    
 Al   1.73000002E-03   12.1560802       4.04192019    
 Al   9.29999980E-04   14.1741800       6.07866001    
 Al   2.02474999       12.1489697       6.07457018    
 Al   2.02474999       14.1641102       4.06644011    
 Al   2.34999997E-03   12.1517801       8.09899998    
 Al   9.29999980E-04   14.1741800       10.1193399    
 Al   2.02474999       12.1489697       10.1234303    
 Al   2.02474999       14.1775398       8.09899998    
 Al   1.73000002E-03   12.1560802       12.1560802    
 Al   1.40500003E-02   14.1872997       14.1872997    
 Al   2.02474999       12.1315603       14.1641102    
 Al   2.02474999       14.1641102       12.1315603    
 Al   4.13110018      -0.00000000       0.00000000    
 Al   4.03544998       2.01069999       2.01069999    
 Al   6.09118986      -0.00000000       2.03389001    
 Al   6.09118986       2.03389001       0.00000000    
 Al   4.05864000      -0.00000000       4.06644011    
 Al   4.04857016       2.02381992       6.07866001    
 Al   6.07378006      -0.00000000       6.07457018    
 Al   6.06666994       2.02302003       4.04192019    
 Al   4.04520988      -0.00000000       8.09899998    
 Al   4.04857016       2.02381992       10.1193399    
 Al   6.07378006      -0.00000000       10.1234303    
 Al   6.07097006       2.02239990       8.09899998    
 Al   4.05864000      -0.00000000       12.1315603    
 Al   4.03544998       2.01069999       14.1872997    
 Al   6.09118986      -0.00000000       14.1641102    
 Al   6.06666994       2.02302003       12.1560802    
 Al   4.05864000       4.06644011       0.00000000    
 Al   4.04857016       6.07866001       2.02381992    
 Al   6.06666994       4.04192019       2.02302003    
 Al   6.07378006       6.07457018       0.00000000    
 Al   4.04777002       4.04192019       4.04192019    
 Al   4.05037022       6.07163000       6.07163000    
 Al   6.07349014       4.04873991       6.07403994    
 Al   6.07349014       6.07403994       4.04873991    
 Al   4.04715014       4.04621983       8.09899998    
 Al   4.05037022       6.07163000       10.1263704    
 Al   6.07349014       4.04873991       10.1239595    
 Al   6.07208014       6.07272005       8.09899998    
 Al   4.04777002       4.04192019       12.1560802    
 Al   4.04857016       6.07866001       14.1741800    
 Al   6.06666994       4.04192019       14.1749802    
 Al   6.07349014       6.07403994       12.1492596    
 Al   4.04520988       8.09899998       0.00000000    
 Al   4.04857016       10.1193399       2.02381992    
 Al   6.07097006       8.09899998       2.02239990    
 Al   6.07378006       10.1234303       0.00000000    
 Al   4.04715014       8.09899998       4.04621983    
 Al   4.05037022       10.1263704       6.07163000    
 Al   6.07208014       8.09899998       6.07272005    
 Al   6.07349014       10.1239595       4.04873991    
 Al   4.05296993       8.09899998       8.09899998    
 Al   4.05037022       10.1263704       10.1263704    
 Al   6.07208014       8.09899998       10.1252804    
 Al   6.07208014       10.1252804       8.09899998    
 Al   4.04715014       8.09899998       12.1517801    
 Al   4.04857016       10.1193399       14.1741800    
 Al   6.07097006       8.09899998       14.1756001    
 Al   6.07349014       10.1239595       12.1492596    
 Al   4.05864000       12.1315603       0.00000000    
 Al   4.03544998       14.1872997       2.01069999    
 Al   6.06666994       12.1560802       2.02302003    
 Al   6.09118986       14.1641102       0.00000000    
 Al   4.04777002       12.1560802       4.04192019    
 Al   4.04857016       14.1741800       6.07866001    
 Al   6.07349014       12.1492596       6.07403994    
 Al   6.06666994       14.1749802       4.04192019    
 Al   4.04715014       12.1517801       8.09899998    
 Al   4.04857016       14.1741800       10.1193399    
 Al   6.07349014       12.1492596       10.1239595    
 Al   6.07097006       14.1756001       8.09899998    
 Al   4.04777002       12.1560802       12.1560802    
 Al   4.03544998       14.1872997       14.1872997    
 Al   6.06666994       12.1560802       14.1749802    
 Al   6.06666994       14.1749802       12.1560802    
 Al   8.08942986      -0.00000000       0.00000000    
 Al   8.10340977       2.02381992       2.02381992    
 Al   10.1237497      -0.00000000       2.02045989    
 Al   10.1237497       2.02045989       0.00000000    
 Al   8.09932041      -0.00000000       4.04902983    
 Al   8.09638023       2.02561998       6.07163000    
 Al   10.1237497      -0.00000000       6.07710981    
 Al   10.1237497       2.02239990       4.04621983    
 Al   8.10186005      -0.00000000       8.09899998    
 Al   8.09638023       2.02561998       10.1263704    
 Al   10.1237497      -0.00000000       10.1208897    
 Al   10.1237497       2.02821994       8.09899998    
 Al   8.09932041      -0.00000000       12.1489697    
 Al   8.10340977       2.02381992       14.1741800    
 Al   10.1237497      -0.00000000       14.1775398    
 Al   10.1237497       2.02239990       12.1517801    
 Al   8.09932041       4.04902983       0.00000000    
 Al   8.09638023       6.07163000       2.02561998    
 Al   10.1237497       4.04621983       2.02239990    
 Al   10.1237497       6.07710981       0.00000000    
 Al   8.09879017       4.04873991       4.04873991    
 Al   8.09922981       6.07448006       6.07448006    
 Al   10.1237497       4.04732990       6.07272005    
 Al   10.1237497       6.07272005       4.04732990    
 Al   8.09747028       4.04732990       8.09899998    
 Al   8.09922981       6.07448006       10.1235199    
 Al   10.1237497       4.04732990       10.1252804    
 Al   10.1237497       6.07238007       8.09899998    
 Al   8.09879017       4.04873991       12.1492596    
 Al   8.09638023       6.07163000       14.1723804    
 Al   10.1237497       4.04621983       14.1756001    
 Al   10.1237497       6.07272005       12.1506701    
 Al   8.10186005       8.09899998       0.00000000    
 Al   8.09638023       10.1263704       2.02561998    
 Al   10.1237497       8.09899998       2.02821994    
 Al   10.1237497       10.1208897       0.00000000    
 Al   8.09747028       8.09899998       4.04732990    
 Al   8.09922981       10.1235199       6.07448006    
 Al   10.1237497       8.09899998       6.07238007    
 Al   10.1237497       10.1252804       4.04732990    
 Al   8.09712982       8.09899998       8.09899998    
 Al   8.09922981       10.1235199       10.1235199    
 Al   10.1237497       8.09899998       10.1256199    
 Al   10.1237497       10.1256199       8.09899998    
 Al   8.09747028       8.09899998       12.1506701    
 Al   8.09638023       10.1263704       14.1723804    
 Al   10.1237497       8.09899998       14.1697798    
 Al   10.1237497       10.1252804       12.1506701    
 Al   8.09932041       12.1489697       0.00000000    
 Al   8.10340977       14.1741800       2.02381992    
 Al   10.1237497       12.1517801       2.02239990    
 Al   10.1237497       14.1775398       0.00000000    
 Al   8.09879017       12.1492596       4.04873991    
 Al   8.09638023       14.1723804       6.07163000    
 Al   10.1237497       12.1506701       6.07272005    
 Al   10.1237497       14.1756001       4.04621983    
 Al   8.09747028       12.1506701       8.09899998    
 Al   8.09638023       14.1723804       10.1263704    
 Al   10.1237497       12.1506701       10.1252804    
 Al   10.1237497       14.1697798       8.09899998    
 Al   8.09879017       12.1492596       12.1492596    
 Al   8.10340977       14.1741800       14.1741800    
 Al   10.1237497       12.1517801       14.1756001    
 Al   10.1237497       14.1756001       12.1517801    
 Al   12.1580696      -0.00000000       0.00000000    
 Al   12.1440897       2.02381992       2.02381992    
 Al   14.1563101      -0.00000000       2.03389001    
 Al   14.1563101       2.03389001       0.00000000    
 Al   12.1481800      -0.00000000       4.04902983    
 Al   12.1511202       2.02561998       6.07163000    
 Al   14.1737204      -0.00000000       6.07457018    
 Al   14.1808300       2.02302003       4.04192019    
 Al   12.1456404      -0.00000000       8.09899998    
 Al   12.1511202       2.02561998       10.1263704    
 Al   14.1737204      -0.00000000       10.1234303    
 Al   14.1765299       2.02239990       8.09899998    
 Al   12.1481800      -0.00000000       12.1489697    
 Al   12.1440897       2.02381992       14.1741800    
 Al   14.1563101      -0.00000000       14.1641102    
 Al   14.1808300       2.02302003       12.1560802    
 Al   12.1481800       4.04902983       0.00000000    
 Al   12.1511202       6.07163000       2.02561998    
 Al   14.1808300       4.04192019       2.02302003    
 Al   14.1737204       6.07457018       0.00000000    
 Al   12.1487103       4.04873991       4.04873991    
 Al   12.1482697       6.07448006       6.07448006    
 Al   14.1740103       4.04873991       6.07403994    
 Al   14.1740103       6.07403994       4.04873991    
 Al   12.1500301       4.04732990       8.09899998    
 Al   12.1482697       6.07448006       10.1235199    
 Al   14.1740103       4.04873991       10.1239595    
 Al   14.1754198       6.07272005       8.09899998    
 Al   12.1487103       4.04873991       12.1492596    
 Al   12.1511202       6.07163000       14.1723804    
 Al   14.1808300       4.04192019       14.1749802    
 Al   14.1740103       6.07403994       12.1492596    
 Al   12.1456404       8.09899998       0.00000000    
 Al   12.1511202       10.1263704       2.02561998    
 Al   14.1765299       8.09899998       2.02239990    
 Al   14.1737204       10.1234303       0.00000000    
 Al   12.1500301       8.09899998       4.04732990    
 Al   12.1482697       10.1235199       6.07448006    
 Al   14.1754198       8.09899998       6.07272005    
 Al   14.1740103       10.1239595       4.04873991    
 Al   12.1503696       8.09899998       8.09899998    
 Al   12.1482697       10.1235199       10.1235199    
 Al   14.1754198       8.09899998       10.1252804    
 Al   14.1754198       10.1252804       8.09899998    
 Al   12.1500301       8.09899998       12.1506701    
 Al   12.1511202       10.1263704       14.1723804    
 Al   14.1765299       8.09899998       14.1756001    
 Al   14.1740103       10.1239595       12.1492596    
 Al   12.1481800       12.1489697       0.00000000    
 Al   12.1440897       14.1741800       2.02381992    
 Al   14.1808300       12.1560802       2.02302003    
 Al   14.1563101       14.1641102       0.00000000    
 Al   12.1487103       12.1492596       4.04873991    
 Al   12.1511202       14.1723804       6.07163000    
 Al   14.1740103       12.1492596       6.07403994    
 Al   14.1808300       14.1749802       4.04192019    
 Al   12.1500301       12.1506701       8.09899998    
 Al   12.1511202       14.1723804       10.1263704    
 Al   14.1740103       12.1492596       10.1239595    
 Al   14.1765299       14.1756001       8.09899998    
 Al   12.1487103       12.1492596       12.1492596    
 Al   12.1440897       14.1741800       14.1741800    
 Al   14.1808300       12.1560802       14.1749802    
 Al   14.1808300       14.1749802       12.1560802    
 O    2.02474999      -0.00000000       0.00000000    
