         406
 Energy:  -2307.5286182999998     
 X   0.00000000       0.00000000       0.00000000    
 X   14.4150839       0.00000000       0.00000000    
 X  -7.20754194       12.4838276       0.00000000    
 X   0.00000000       0.00000000       33.7162552    
 X   7.20754194       12.4838276       0.00000000    
 X   14.4150839       0.00000000       33.7162552    
 X  -7.20754194       12.4838276       33.7162552    
 X   7.20754194       12.4838276       33.7162552    
 Al  -0.00000000      -0.00000000       1.96721995    
 Al  -2.28999997E-03   2.77286005      0.994579971    
 Al  -4.17000009E-03   2.77637005       4.09560013    
 Al   2.40148997       1.38784003       2.38451004    
 Al   2.40049005       1.38511002       6.04181004    
 Al  -0.00000000      -0.00000000       4.50383997    
 Al  -0.00000000      -0.00000000       8.23991013    
 Al  -6.07000012E-03   2.78789997       6.66332006    
 Al  -5.79800010E-02   2.88595009       10.3480902    
 Al   2.41564012       1.38415003       8.50988007    
 Al   2.31963992       1.42388999       10.8796902    
 Al  -0.00000000      -0.00000000       10.8250399    
 Al  -2.40147996       4.16084003       1.96534002    
 Al  -2.40113997       6.93507004      0.992169976    
 Al  -2.40386009       6.93935013       4.09551001    
 Al   9.00000014E-05   5.54769993       2.37826991    
 Al   5.27000008E-03   5.54840994       6.05147982    
 Al  -2.40552998       4.16839981       4.50693989    
 Al  -2.44308996       4.19718981       8.24654007    
 Al  -2.38205004       6.94595003       6.65371990    
 Al  -2.39883995       6.96917009       10.5587597    
 Al  -1.91099998E-02   5.59326982       8.64583015    
 Al  -9.29000042E-03   5.59369993       11.6748896    
 Al  -2.37790990       4.26380014       10.9479904    
 Al  -4.80548000       8.32287025       1.96440005    
 Al  -4.80502987       11.0993795      0.994579971    
 Al  -4.80105019       11.0992603       4.09560013    
 Al  -2.40313005       9.70989990       2.37826991    
 Al  -2.40510988       9.70506001       6.05147982    
 Al  -4.80594015       8.32382011       4.50862980    
 Al  -4.76494980       8.36003971       8.29627991    
 Al  -4.79011011       11.0951405       6.66332006    
 Al  -4.67924976       11.0910597       10.3480902    
 Al  -2.35406995       9.70374966       8.64583015    
 Al  -2.35860991       9.69501972       11.6748896    
 Al  -4.74956989       8.26519966       10.9748602    
 Al   4.80413008      -6.79999997E-04   1.96534002    
 Al   4.80354977       2.77448010      0.992619991    
 Al   4.80155993       2.77641010       4.09775019    
 Al   7.20703983       1.38694000       2.37906003    
 Al   7.20702982       1.38161004       6.04476023    
 Al   4.81270981      -9.50000016E-04   4.50693989    
 Al   4.85642004       1.71799995E-02   8.24654007    
 Al   4.81490993       2.79011011       6.65803003    
 Al   4.86011982       2.76763010       10.3928204    
 Al   7.25764990       1.36252999       8.62464046    
 Al   7.20467997       1.39929998       11.6663704    
 Al   4.88151979      -7.25700036E-02   10.9479904    
 Al   2.40247011       4.16072989       1.96440005    
 Al   2.40216994       6.93685007      0.992169976    
 Al   2.39981008       6.93235016       4.09551001    
 Al   4.80515003       5.54888010       2.37906003    
 Al   4.80053997       5.55154991       6.04476023    
 Al   2.40187001       4.15985012       4.50862980    
 Al   2.35000992       4.17723989       8.29627991    
 Al   2.38319993       6.94793987       6.65371990    
 Al   2.37147999       6.92179012       10.5587597    
 Al   4.75870991       5.51726007       8.62464046    
 Al   4.81703997       5.54474020       11.6663704    
 Al   2.42444992       4.23797989       10.9748602    
 Al   0.00000000       8.32254982       1.96177006    
 Al  -1.03000004E-03   11.0957403      0.992169976    
 Al   4.04000003E-03   11.0959597       4.09551001    
 Al   2.40304995       9.71004963       2.37826991    
 Al   2.39984989       9.71417999       6.05147982    
 Al   0.00000000       8.32254982       4.50754023    
 Al   0.00000000       8.32254982       8.36948013    
 Al  -1.15999999E-03   11.0737696       6.65371990    
 Al   2.73499992E-02   11.0767002       10.5587597    
 Al   2.37318993       9.67063999       8.64583015    
 Al   2.36789989       9.67893028       11.6748896    
 Al   0.00000000       8.32254982       11.0321703    
 Al   9.61056042       2.39999994E-04   1.96440005    
 Al   9.61052990       2.77274990      0.992619991    
 Al   9.60986042       2.77007008       4.09775019    
 Al   12.0124302       1.38583004       2.38451004    
 Al   12.0152998       1.38633001       6.04181004    
 Al   9.61161041       1.59999996E-04   4.50862980    
 Al   9.62248039      -5.34499995E-02   8.29627991    
 Al   9.59132957       2.77478004       6.65803003    
 Al   9.58817959       2.82518005       10.3928204    
 Al   12.0085602       1.39991999       8.50988007    
 Al   12.0221395       1.29691994       10.8796902    
 Al   9.53265953      -1.93499997E-02   10.9748602    
 Al   7.20754004       4.16128016       1.96660995    
 Al   7.20853996       6.93659019      0.992619991    
 Al   7.21120024       6.93734980       4.09775019    
 Al   9.61044025       5.54800987       2.37906003    
 Al   9.61505985       5.55067015       6.04476023    
 Al   7.20754004       4.16128016       4.51524019    
 Al   7.20754004       4.16128016       8.31085014    
 Al   7.21639013       6.91894007       6.65803003    
 Al   7.17432022       6.89101982       10.3928204    
 Al   9.60628033       5.60404015       8.62464046    
 Al   9.60091019       5.53978014       11.6663704    
 Al   7.20754004       4.16128016       11.0447903    
 Al   4.80489016       8.32367039       1.96534002    
 Al   4.80732012       11.0954199      0.994579971    
 Al   4.80522013       11.0920296       4.09560013    
 Al   7.20871019       9.71014977       2.38451004    
 Al   7.20684004       9.71238041       6.04181004    
 Al   4.80037022       8.31637955       4.50693989    
 Al   4.79420996       8.26945019       8.24654007    
 Al   4.79617977       11.0846205       6.66332006    
 Al   4.73721981       10.9906502       10.3480902    
 Al   7.19844007       9.69974995       8.50988007    
 Al   7.28084993       9.76301003       10.8796902    
 Al   4.70393991       8.29259014       10.9479904    
 O    1.47419000       3.83000006E-03   3.25289011    
 O    3.23793006      0.122699998       1.14443004    
 O  -0.740409970       1.27477002       3.25289011    
 O    1.66843998       2.89002991       3.25619006    
 O    3.08029008       2.74295998       1.14198005    
 O   0.885900021       1.29686999       1.14558995    
 O    3.88141990       1.39218998       7.38590002    
 O   0.723999977       1.51069999       5.32187986    
 O    1.67442000       2.68163991       7.37893009    
 O    1.67060006      0.133369997       7.36343002    
 O   0.739160001       4.04280996       5.33519983    
 O   -1.46893001       2.78968000       5.33026981    
 O    1.39156997       2.90458012       11.3376503    
 O   -1.65500998       2.97343993       9.40853977    
 O  -0.812680006       4.06502008       11.7509003    
 O  -0.683759987       1.52643001       11.3548298    
 O   0.764890015       1.30229998       9.39091015    
 O    3.40258002      -5.34400009E-02   9.40853977    
 O  -0.928240001       4.16767979       3.25327992    
 O   0.835150003       4.27942991       1.14438999    
 O   -3.13964009       5.43559980       3.25830007    
 O  -0.734130025       7.04855013       3.25488997    
 O   0.678009987       6.90566015       1.13785005    
 O   -1.51487994       5.45573997       1.13768005    
 O    1.47755003       5.56100988       7.40462017    
 O   -1.67136002       5.67800999       5.33473015    
 O  -0.730459988       6.85256004       7.43440008    
 O  -0.753719985       4.32191992       7.36866999    
 O   -1.65676999       8.20376015       5.34412003    
 O   -3.86845994       6.95006990       5.33096981    
 O  -0.947889984       7.05525017       11.8203402    
 O   -4.05221987       7.04755020       9.62640953    
 O   -3.19704008       8.17998028       11.8285999    
 O   -3.08535004       5.64216995       11.8020201    
 O   -1.65685999       5.52070999       9.61544991    
 O   0.890290022       4.27077007       9.49670029    
 O   -3.33019996       8.32452965       3.25477004    
 O   -1.56606996       8.44382954       1.13785005    
 O   -5.53891993       9.59391022       3.25619006    
 O   -3.13410997       11.2038698       3.25327992    
 O   -1.72528994       11.0678797       1.13768005    
 O   -3.91901994       9.62084961       1.14438999    
 O  -0.907809973       9.69015026       7.43440008    
 O   -4.07595015       9.82229996       5.33519983    
 O   -3.08779001       10.9756098       7.36866999    
 O   -3.13034010       8.42372990       7.40462017    
 O   -4.05713987       12.3611202       5.33026981    
 O   -6.26124001       11.1014700       5.32187986    
 O   -3.28079009       11.1551104       11.7509003    
 O   -6.46216011       11.1702604       9.39091015    
 O   -5.54373980       12.3127699       11.3548298    
 O   -5.38788986       9.82639980       11.3376503    
 O   -3.95409012       9.57742977       9.49670029    
 O   -1.47596002       8.35188007       9.64883041    
 O    6.27719021       1.21000002E-03   3.25830007    
 O    8.04473972      0.119369999       1.13859999    
 O    4.06955004       1.27310002       3.25769997    
 O    6.47273016       2.88594007       3.26238990    
 O    7.88569021       2.74660993       1.13879001    
 O    5.69151020       1.29631996       1.14319003    
 O    8.67743015       1.36423004       7.41014004    
 O    5.53245020       1.49811006       5.34174013    
 O    6.48718023       2.66532993       7.39013004    
 O    6.48581982      0.101599999       7.37646008    
 O    5.54297018       4.04223013       5.34245014    
 O    3.34473991       2.78291988       5.33784008    
 O    6.25628996       2.84098005       11.7871799    
 O    3.18002009       2.91100001       9.45365047    
 O    4.00921011       4.02055979       11.7370796    
 O    4.15771008       1.45377004       11.3383999    
 O    5.63841009       1.26050997       9.50722980    
 O    8.12946987      -1.44499997E-02   9.62640953    
 O    3.87737989       4.16457987       3.25173998    
 O    5.64334011       4.28131008       1.13879001    
 O    1.66339004       5.43753004       3.25477004    
 O    4.06999016       7.04701996       3.25830007    
 O    5.48443985       6.90668011       1.14319003    
 O    3.28854990       5.45719004       1.13859999    
 O    6.27220011       5.53310013       7.39013004    
 O    3.12283993       5.65860987       5.33096981    
 O    4.05261993       6.81614017       7.37646008    
 O    4.05030012       4.28683996       7.41014004    
 O    3.12592006       8.19738960       5.33473015    
 O   0.931259990       6.94715023       5.34412003    
 O    3.86395001       6.99074984       11.8020201    
 O   0.712580025       7.02966976       9.64883041    
 O    1.57146001       8.13531017       11.8203402    
 O    1.72198999       5.62512016       11.8285999    
 O    3.13029003       5.45072985       9.62640953    
 O    5.74650002       4.18388987       9.58353043    
 O    1.47037995       8.32378006       3.25488997    
 O    3.24017000       8.44402981       1.13768005    
 O  -0.736249983       9.59531975       3.25488997    
 O    1.66681004       11.2055998       3.25477004    
 O    3.08386993       11.0673704       1.14438999    
 O   0.888069987       9.61816978       1.13785005    
 O    3.84151006       9.67012024       7.36866999    
 O   0.725499988       9.81674957       5.34412003    
 O    1.65279996       10.9829197       7.40462017    
 O    1.63828003       8.42494011       7.43440008    
 O   0.745620012       12.3589802       5.33096981    
 O   -1.45457006       11.0922604       5.33473015    
 O    1.47504997       11.1625500       11.8285999    
 O   -1.59802997       11.1583500       9.61544991    
 O  -0.778599977       12.3347397       11.8020201    
 O  -0.623579979       9.77709961       11.8203402    
 O   0.763379991       9.58611012       9.64883041    
 O    3.25488997       8.28859043       9.61544991    
 O    11.0780296      -1.10000001E-04   3.25619006    
 O    12.8490105      0.118770003       1.14558995    
 O    8.86975956       1.27561998       3.25173998    
 O    11.2777700       2.88778996       3.25769997    
 O   -1.72522998       2.74277997       1.14443004    
 O    10.4994698       1.29612994       1.14198005    
 O    13.4642897       1.38009000       7.36343002    
 O    10.3326302       1.50516999       5.33784008    
 O    11.2687101       2.66530991       7.38590002    
 O    11.2555103      0.109269999       7.37893009    
 O    10.3514500       4.04218006       5.34174013    
 O    8.14291954       2.77923989       5.34245014    
 O    11.0772305       2.87380004       11.3383999    
 O    7.91847992       2.88467002       9.58353043    
 O    8.82658005       3.99762011       11.7871799    
 O    8.92856979       1.46179998       11.7370796    
 O    10.3040800       1.29848003       9.45365047    
 O    12.9048100       1.12600001E-02   9.39091015    
 O    8.67942047       4.16258001       3.26238990    
 O    10.4466801       4.28081989       1.14319003    
 O    6.47046995       5.43530989       3.26238990    
 O    8.87547970       7.04363012       3.25173998    
 O   -4.12575006       6.90725994       1.13859999    
 O    8.09360027       5.45590019       1.13879001    
 O    11.0841904       5.56608009       7.37646008    
 O    7.93671989       5.66236019       5.34245014    
 O    8.89490986       6.83274984       7.41014004    
 O    8.86324978       4.28538990       7.39013004    
 O    7.94525003       8.19573975       5.33784008    
 O    5.73871994       6.94353008       5.34174013    
 O    8.68484020       7.00147009       11.7370796    
 O    5.47997999       6.97057009       9.50722980    
 O    6.38768005       8.15627003       11.3383999    
 O    6.53975010       5.64522982       11.7871799    
 O    7.95765018       5.41526985       9.58353043    
 O    10.5042400       4.25274992       9.50722980    
 O    6.27530003       8.32293987       3.25769997    
 O    8.04286957       8.44474030       1.14198005    
 O    4.06234980       9.59611034       3.25327992    
 O    6.47376013       11.2052298       3.25289011    
 O   -6.52735996       11.0681801       1.14558995    
 O    5.69484997       9.61833954       1.14443004    
 O    8.69270039       9.69291973       7.37893009    
 O    5.52607012       9.81686020       5.33026981    
 O    6.48775005       10.9703598       7.36343002    
 O    6.47250986       8.42632961       7.38590002    
 O    5.53723001       12.3554802       5.32187986    
 O    3.33678007       11.1025496       5.33519983    
 O    6.22748995       11.1284599       11.3548298    
 O    3.06380010       11.1194496       9.49670029    
 O    3.99631000       12.2366800       11.3376503    
 O    4.09346008       9.74752045       11.7509003    
 O    5.45998001       9.56383038       9.40853977    
 O    8.13852978       8.27435970       9.45365047    
 O   -0.00000000      -0.00000000       15.0143003    
 O   -0.00000000      -0.00000000       16.3110008    
 O   -1.04497004       1.42493999       14.2446203    
 O   -1.09671998       1.47671998       16.3521194    
 O   -1.84569001       2.45090008       14.1769304    
 O   -2.08158994       2.28366995       16.3283596    
 O   -2.61879992       4.44931984       14.5865002    
 O   -2.67275000       4.44493008       15.8441000    
 O   -3.58436990       6.25756979       14.6269999    
 O   -3.57223010       6.25973988       15.8751802    
 O   -4.66869020       7.97815990       14.5671301    
 O   -4.68632984       7.95498991       15.8683596    
 O   -6.00847006       9.64093971       14.1587496    
 O   -6.26578999       9.55319977       16.1725693    
 O   -6.56444979       10.7874298       13.9627800    
 O   -6.51417017       10.8157701       16.4908504    
 O    1.75652003      0.192499995       14.2446203    
 O    1.82723999      0.211429998       16.3521194    
 O    1.14758003       1.40513003       13.9627800    
 O    1.09789002       1.43449998       16.4908504    
 O    2.05099992E-02   2.78839993       14.7397203    
 O   -1.00800004E-02   2.81770992       15.9353104    
 O  -0.919099987       4.33613014       14.7335396    
 O  -0.945739985       4.31059980       15.9587803    
 O   -1.83305001       6.11566019       14.6303797    
 O   -1.77783000       6.09236002       15.8563404    
 O   -2.80667996       7.82571983       14.5979204    
 O   -2.80260992       7.88513994       15.8495102    
 O   -3.90348005       9.51375008       14.7052698    
 O   -3.94431996       9.49302959       15.9348803    
 O   -4.80296993       11.0718699       14.7397203    
 O   -4.76229000       11.0837002       15.9353104    
 O    3.04538989      0.372960001       14.1769304    
 O    3.01851010      0.660870016       16.3283596    
 O    2.58179998       1.59422004       12.6830397    
 O    2.56367993       1.52257001       18.5671692    
 O    1.86247003       2.45987010       14.1587496    
 O    2.06712008       2.28090000       16.1725693    
 O   0.920130014       4.34643984       14.7052698    
 O   0.958500028       4.32143021       15.9348803    
 O   -6.62000012E-03   6.03476000       14.4432602    
 O    6.51999982E-03   6.06814003       15.6725998    
 O  -0.933000028       7.77706003       14.6705303    
 O  -0.938530028       7.77240992       15.9077702    
 O   -1.97797000       9.47218037       14.4432602    
 O   -1.95563996       9.44412041       15.6725998    
 O   -2.99280000       11.1117201       14.7335396    
 O   -3.00159001       11.1475601       15.9587803    
 O    5.16263008       4.32900004E-02   14.5865002    
 O    5.18579006       9.22000036E-02   15.8441000    
 O    4.24932003       1.52119005       14.3923502    
 O    4.29238987       1.51464999       15.7535801    
 O    3.50809002       3.07182002       14.5376396    
 O    3.51728010       3.07544994       15.8591900    
 O    2.63260007       4.45153999       14.5671301    
 O    2.66147995       4.44785023       15.8683596    
 O    1.83361006       6.14030981       14.5979204    
 O    1.78011000       6.11412001       15.8495102    
 O   0.938910007       7.78730011       14.6705303    
 O   0.945699990       7.78483009       15.9077702    
 O   -5.91999991E-03   9.40330029       14.6705303    
 O   -7.17000011E-03   9.41040993       15.9077702    
 O  -0.994700015       11.0134697       14.6303797    
 O   -1.04249001       10.9772902       15.8563404    
 O    7.21140003      -2.46300008E-02   14.6269999    
 O    7.20721006      -3.62199992E-02   15.8751802    
 O    6.24267006       1.54044998       14.5179796    
 O    6.22384977       1.51653004       15.7612000    
 O    5.34708977       3.07742000       14.6625900    
 O    5.31945992       3.03239012       15.8951101    
 O    4.50296021       4.68729019       14.6307297    
 O    4.49325991       4.69822979       15.8649702    
 O    3.58050990       6.25088978       14.6269999    
 O    3.57257009       6.26031017       15.8751802    
 O    2.82774997       7.83853006       14.6303797    
 O    2.82031012       7.89799976       15.8563404    
 O    1.98459005       9.46070957       14.4432602    
 O    1.94912004       9.45540047       15.6725998    
 O   0.973070025       11.0016298       14.5979204    
 O    1.02250004       10.9683905       15.8495102    
 O    9.24363995       5.41299991E-02   14.5671301    
 O    9.23239040       8.09800029E-02   15.8683596    
 O    8.10429001       1.55604005       14.6307297    
 O    8.09967041       1.54216003       15.8649702    
 O    7.20598984       3.13295007       14.7164497    
 O    7.19471979       3.08137012       15.9384203    
 O    6.31775999       4.67678022       14.7164497    
 O    6.27872992       4.71232986       15.9384203    
 O    5.42027998       6.30729008       14.5179796    
 O    5.40896988       6.33554983       15.7612000    
 O    4.66372013       7.99122000       14.5865002    
 O    4.69449997       7.94670010       15.8441000    
 O    3.91189003       9.51980019       14.7335396    
 O    3.94731998       9.50949955       15.9587803    
 O    2.98334002       11.1074600       14.7052698    
 O    2.98582006       11.1532001       15.9348803    
 O    11.3535404      0.383020014       14.1587496    
 O    11.4062099      0.649730027       16.1725693    
 O    10.0007601       1.50218999       14.5376396    
 O    9.99302006       1.50831997       15.8591900    
 O    9.07641983       3.09200001       14.6625900    
 O    9.12922955       3.09059000       15.8951101    
 O    8.09887028       4.67408991       14.7164497    
 O    8.14918041       4.69012022       15.9384203    
 O    7.19912004       6.31440020       14.6625900    
 O    7.17394018       6.36084986       15.8951101    
 O    6.40026999       8.04321003       14.3923502    
 O    6.37306976       8.00918007       15.7535801    
 O    6.00784016       9.65997028       14.1769304    
 O    6.27061987       9.53929043       16.3283596    
 O    4.78246021       11.1073904       14.7397203    
 O    4.77236986       11.0662403       15.9353104    
 O    12.6244097      0.291269988       13.9627800    
 O    12.6238203      0.233549997       16.4908504    
 O    11.7435503       1.43879998       12.6830397    
 O    11.8146601       1.45893002       18.5671692    
 O    10.9730301       2.91943002       14.3923502    
 O    10.9571695       2.96000004       15.7535801    
 O    9.95967960       4.63608980       14.5179796    
 O    9.98980045       4.63175011       15.7612000    
 O    9.01537037       6.24049997       14.6307297    
 O    9.02970028       6.24344015       15.8649702    
 O    8.11376953       7.90982008       14.5376396    
 O    8.11233044       7.90005016       15.8591900    
 O    7.29727983       9.45081043       12.6830397    
 O    7.24428988       9.50232983       18.5671692    
 O    6.49599981       10.8663902       14.2446203    
 O    6.47702980       10.7956800       16.3521194    
