         534
 Energy:  -2660.4026485999998     
 X   0.00000000       0.00000000       0.00000000    
 X   14.4150839       0.00000000       0.00000000    
 X  -7.20754194       12.4838276       0.00000000    
 X   0.00000000       0.00000000       36.1162529    
 X   7.20754194       12.4838276       0.00000000    
 X   14.4150839       0.00000000       36.1162529    
 X  -7.20754194       12.4838276       36.1162529    
 X   7.20754194       12.4838276       36.1162529    
 Al   0.00000000       0.00000000       1.63404000    
 Al   6.67000003E-03   2.78941011      0.701030016    
 Al   3.21000000E-03   2.77531004       3.89733005    
 Al   2.41879010       1.39374995       1.85047996    
 Al   2.39615989       1.39872003       6.01944017    
 Al   0.00000000       0.00000000       4.28670979    
 Al   0.00000000       0.00000000       8.02676964    
 Al  -1.97000010E-03   2.76620007       6.49294996    
 Al   8.53400007E-02   2.79390001       10.2752104    
 Al   2.42997003       1.35307002       8.58075047    
 Al   2.34387994       1.40971994       11.8608799    
 Al   0.00000000       0.00000000       10.4728899    
 Al  -2.41910005       4.14160013       1.61548996    
 Al  -2.38739991       6.92951012      0.688849986    
 Al  -2.38772988       6.94022989       3.88724995    
 Al  -2.06999993E-03   5.54632998       1.85502005    
 Al  -7.36999977E-03   5.54235983       5.97657013    
 Al  -2.38182998       4.15764999       4.28425980    
 Al  -2.41389990       4.18965006       8.03075027    
 Al  -2.41285992       6.92512989       6.47400999    
 Al  -2.35787010       6.94944000       10.1906300    
 Al   1.03000002E-02   5.55980015       8.58129978    
 Al   6.96899965E-02   5.59089994       12.0250702    
 Al  -2.38237000       4.15451002       10.5037498    
 Al  -4.80222988       8.32176971       1.60441995    
 Al  -4.79517984       11.0833502      0.701030016    
 Al  -4.80565977       11.0934000       3.89733005    
 Al  -2.40323997       9.71245956       1.85502005    
 Al  -2.40403008       9.71903992       5.97657013    
 Al  -4.80281019       8.33181000       4.26309013    
 Al  -4.82534981       8.29951954       7.97927999    
 Al  -4.81095982       11.1024399       6.49294996    
 Al  -4.83062983       11.0129700       10.2752104    
 Al  -2.39775991       9.69501019       8.58129978    
 Al  -2.40052009       9.62802029       12.0250702    
 Al  -4.79234982       8.25389004       10.4592304    
 Al   4.79627991       2.41999999E-02   1.61548996    
 Al   4.78763008       2.80045009      0.585550010    
 Al   4.79464006       2.76309991       3.85034990    
 Al   7.18215990       1.40078998       1.87425995    
 Al   7.20855999       1.38505006       5.95098019    
 Al   4.79154015      -1.61000006E-02   4.28425980    
 Al   4.83528996      -4.32999991E-03   8.03075027    
 Al   4.80859995       2.74341011       6.48242998    
 Al   4.81532001       2.71043992       10.2077103    
 Al   7.21918011       1.40233004       8.55173016    
 Al   7.21655989       1.43116999       11.9062595    
 Al   4.78909016      -1.40600000E-02   10.5037498    
 Al   2.40178990       4.16409016       1.60441995    
 Al   2.40011001       6.95152998      0.688849986    
 Al   2.39099002       6.94587994       3.88724995    
 Al   4.82958984       5.56349993       1.87425995    
 Al   4.80276012       5.54850006       5.95098019    
 Al   2.39338994       4.15856981       4.26309013    
 Al   2.43262005       4.15518999       7.97927999    
 Al   2.41663003       6.93167019       6.47400999    
 Al   2.36807990       6.96714020       10.1906300    
 Al   4.81240988       5.53067017       8.55173016    
 Al   4.83868980       5.51851988       11.9062595    
 Al   2.45564008       4.20658016       10.4592304    
 Al   0.00000000       8.32254982       1.64152002    
 Al  -1.27200000E-02   11.0866203      0.688849986    
 Al  -3.26999999E-03   11.0815496       3.88724995    
 Al   2.40531993       9.70886993       1.85502005    
 Al   2.41141009       9.70625973       5.97657013    
 Al   0.00000000       8.32254982       4.27649021    
 Al   0.00000000       8.32254982       7.96807003    
 Al  -3.77999991E-03   11.1108599       6.47400999    
 Al  -1.02300001E-02   11.0510798       10.1906300    
 Al   2.38745999       9.71284008       8.58129978    
 Al   2.33083010       9.74872017       12.0250702    
 Al   0.00000000       8.32254982       10.6435699    
 Al   9.60797977      -2.03000009E-03   1.60441995    
 Al   9.59601021       2.74599004      0.585550010    
 Al   9.62485027       2.77073002       3.85034990    
 Al   11.9986696       1.39785004       1.85047996    
 Al   12.0056801       1.37576997       6.01944017    
 Al   9.61695957      -6.55000005E-03   4.26309013    
 Al   9.60027027       2.91200001E-02   7.97927999    
 Al   9.63492012       2.79267001       6.48242998    
 Al   9.66012001       2.81497002       10.2077103    
 Al   12.0283098       1.42788005       8.58075047    
 Al   12.0222902       1.32499003       11.8608799    
 Al   9.54426003       2.33500004E-02   10.4592304    
 Al   7.20754004       4.16128016       1.62284994    
 Al   7.23897982       6.93738985      0.585550010    
 Al   7.20312977       6.94999981       3.85034990    
 Al   9.61089039       5.51952982       1.87425995    
 Al   9.61131001       5.55027008       5.95098019    
 Al   7.20754004       4.16128016       4.32670021    
 Al   7.20754004       4.16128016       8.01298046    
 Al   7.17910004       6.94775009       6.48242998    
 Al   7.14719009       6.95841980       10.2077103    
 Al   9.59103966       5.55081987       8.55173016    
 Al   9.56737995       5.53414011       11.9062595    
 Al   7.20754004       4.16128016       10.5395098    
 Al   4.83035994       8.31803036       1.61548996    
 Al   4.78849983       11.0949001      0.701030016    
 Al   4.80245018       11.0989504       3.89733005    
 Al   7.20518017       9.69221973       1.85047996    
 Al   7.22078991       9.70932961       6.01944017    
 Al   4.79783010       8.34228039       4.28425980    
 Al   4.78614998       8.29850006       8.03075027    
 Al   4.81293011       11.0990295       6.49294996    
 Al   4.74527979       11.1607904       10.2752104    
 Al   7.16436005       9.70287991       8.58075047    
 Al   7.25646019       9.74911022       11.8608799    
 Al   4.80080986       8.34337997       10.5037498    
 O    1.53921998      -1.66200008E-02   2.93988991    
 O    3.20395994      0.110849999      0.699689984    
 O  -0.755209982       1.34131002       2.93988991    
 O    1.64579999       2.84048009       2.93982005    
 O    3.11509991       2.73638010      0.665939987    
 O   0.890540004       1.33020997      0.703230023    
 O    3.82863998       1.39279997       7.28745985    
 O   0.686909974       1.45558000       5.22550011    
 O    1.66942000       2.61754990       7.29404020    
 O    1.67929995      0.119080000       7.32413006    
 O   0.796909988       4.01781988       5.21458006    
 O   -1.45719004       2.82508993       5.23505020    
 O    1.61345994       2.85191011       11.3424902    
 O   -1.59136999       2.92546010       9.29959011    
 O  -0.673629999       4.13905001       11.2855196    
 O  -0.734499991       1.46097004       11.2978001    
 O   0.748600006       1.28296006       9.36625957    
 O    3.32921004      -8.45599994E-02   9.29959011    
 O  -0.849430025       4.14993000       2.94513988    
 O   0.801890016       4.27732992      0.703830004    
 O   -3.15700006       5.49068022       2.93760991    
 O  -0.752240002       6.99220991       2.95631003    
 O   0.705259979       6.87801981      0.704829991    
 O   -1.52649999       5.48623991      0.708249986    
 O    1.44484997       5.55166006       7.25974989    
 O   -1.70957994       5.61870003       5.18922997    
 O  -0.744930029       6.76386023       7.25400019    
 O  -0.728680015       4.27477980       7.27134991    
 O   -1.60107005       8.19172955       5.19883013    
 O   -3.86717010       7.00397015       5.19600010    
 O  -0.841000021       6.88924980       11.3598299    
 O   -4.05283022       7.01910019       9.27682018    
 O   -3.16175008       8.26576042       11.2323103    
 O   -3.21696997       5.60365009       11.2090597    
 O   -1.66681004       5.49000978       9.32009983    
 O   0.963479996       4.15452003       9.32061958    
 O   -3.26676011       8.30107975       2.93746996    
 O   -1.60362995       8.43404961      0.704829991    
 O   -5.57050991       9.63829041       2.93982005    
 O   -3.18887997       11.1444902       2.94513988    
 O   -1.69306004       11.0627003      0.708249986    
 O   -3.90421009       9.65071011      0.703830004    
 O  -0.977400005       9.74701977       7.25400019    
 O   -4.12647009       9.78477001       5.21458006    
 O   -3.14112997       10.9774904       7.27134991    
 O   -3.12209010       8.45672035       7.25974989    
 O    3.17518997     -0.150580004       5.23505020    
 O   -6.29043007       11.1611500       5.22550011    
 O   -3.28621006       10.9976797       11.2855196    
 O   -6.47076988       11.1940403       9.36625957    
 O    1.63248003      -9.43899974E-02   11.2978001    
 O   -5.54444981       9.66057968       11.3424902    
 O   -4.09136009       9.57217026       9.32061958    
 O   -1.46410000       8.28864956       9.28491020    
 O    6.33357000      -1.13000004E-02   2.93760991    
 O    8.00485039      0.127890006      0.710829973    
 O    4.02954006       1.30753005       2.94847012    
 O    6.45449018       2.83435988       2.96315002    
 O    7.90417004       2.73188996      0.709649980    
 O    5.64874983       1.35845995      0.724720001    
 O    8.64099979       1.42491996       7.26913977    
 O    5.48928022       1.44264996       5.20286989    
 O    6.46391010       2.63246989       7.26847982    
 O    6.52954006      0.129889995       7.29232979    
 O    5.58971977       4.03827000       5.20412016    
 O    3.30397010       2.81587005       5.17230988    
 O    6.32564020       2.72092009       11.2362003    
 O    3.20318007       2.87103009       9.26587963    
 O    4.15471983       4.13127995       11.1652298    
 O    3.99023008       1.47009003       11.2501097    
 O    5.52305984       1.27109003       9.25032997    
 O    8.10513973       3.00000014E-04   9.27682018    
 O    3.93485999       4.16075993       2.93144011    
 O    5.62133980       4.27266979      0.709649980    
 O    1.65197003       5.50418997       2.93746996    
 O    4.03097010       7.00443983       2.93760991    
 O    5.55962992       6.91264009      0.724720001    
 O    3.31587005       5.48748016      0.710829973    
 O    6.25538015       5.56968021       7.26847982    
 O    3.07551003       5.63278008       5.19600010    
 O    4.05527020       6.76414013       7.29232979    
 O    4.12106991       4.28805017       7.26913977    
 O    3.19638991       8.19394016       5.18922997    
 O   0.913820028       7.00139999       5.19883013    
 O    3.96311998       6.89602995       11.2090597    
 O   0.761409998       7.07154989       9.28491020    
 O    1.66178000       8.31087971       11.3598299    
 O    1.63005996       5.61279011       11.2323103    
 O    3.15524006       5.46441984       9.27682018    
 O    5.74858999       4.11925983       9.29611015    
 O    1.52822995       8.33627033       2.95631003    
 O    3.21956992       8.41870975      0.708249986    
 O  -0.775990009       9.63918018       2.95631003    
 O    1.61477995       11.1623802       2.93746996    
 O    3.10232997       11.0396099      0.703830004    
 O   0.898379982       9.65559006      0.704829991    
 O    3.86981010       9.71537971       7.27134991    
 O   0.687240005       9.77453041       5.19883013    
 O    1.67724001       10.9592695       7.25974989    
 O    1.72232997       8.45676994       7.25400019    
 O    7.99919987     -0.152909994       5.19600010    
 O   -1.48681998       11.1550198       5.18922997    
 O    1.53169000       11.0891104       11.2323103    
 O   -1.61965001       11.1823301       9.32009983    
 O    6.46138000      -1.58500001E-02   11.2090597    
 O  -0.820779979       9.76753998       11.3598299    
 O   0.702690005       9.60744953       9.28491020    
 O    3.28645992       8.29531956       9.32009983    
 O    11.1322603       5.05999988E-03   2.93982005    
 O    12.8178196      0.106119998      0.703230023    
 O    8.84432983       1.32730997       2.93144011    
 O    11.2679596       2.83592010       2.94847012    
 O   -1.69798005       2.71928000      0.699689984    
 O    10.4877596       1.32956004      0.665939987    
 O    13.4723101       1.39477003       7.32413006    
 O    10.3244801       1.45339000       5.17230988    
 O    11.2945700       2.61929989       7.28745985    
 O    11.3135099      0.136979997       7.29404020    
 O    10.4210701       4.03253984       5.20286989    
 O    8.12296963       2.82171011       5.20412016    
 O    11.1468296       2.72059989       11.2501097    
 O    7.97341013       2.91879010       9.29611015    
 O    8.89587975       4.11771011       11.2362003    
 O    8.75992012       1.53245997       11.1652298    
 O    10.3271103       1.33852994       9.26587963    
 O    12.9297104       6.82999985E-03   9.36625957    
 O    8.73320961       4.17257023       2.96315002    
 O    10.4142504       4.21271992      0.724720001    
 O    6.43491983       5.47689009       2.96315002    
 O    8.84342957       6.99575996       2.93144011    
 O    10.3019104       6.86846018      0.710829973    
 O    8.09712029       5.47925997      0.709649980    
 O    11.0378304       5.58978987       7.29232979    
 O    7.90992022       5.62384987       5.20412016    
 O    8.86056995       6.77086020       7.26913977    
 O    8.90334034       4.28167009       7.26847982    
 O    7.99417019       8.21457005       5.17230988    
 O    5.71226978       7.00864983       5.20286989    
 O    8.70796967       6.82008982       11.1652298    
 O    5.54680014       7.06516981       9.25032997    
 O    6.48554993       8.29314041       11.2501097    
 O    6.40110016       5.64520979       11.2362003    
 O    7.90063000       5.44577980       9.29611015    
 O    10.5527601       4.14757013       9.25032997    
 O    6.32512999       8.34037971       2.94847012    
 O    8.01976967       8.41788006      0.665939987    
 O    4.03831005       9.67323971       2.94513988    
 O    6.42354012       11.1591396       2.93988991    
 O   -6.50082016       11.0474901      0.703230023    
 O    5.70156002       9.65369034      0.699689984    
 O    8.63969994       9.72929001       7.29404020    
 O    5.48953009       9.80932045       5.23505020    
 O    6.47102022       10.9699697       7.32413006    
 O    6.49943018       8.47173023       7.28745985    
 O    12.8110504     -0.132909998       5.22550011    
 O    3.32955003       11.1650696       5.21458006    
 O    6.30955982       11.1172504       11.2978001    
 O    3.12788010       11.2409601       9.32061958    
 O    11.1385298      -2.86500007E-02   11.3424902    
 O    3.95983005       9.83092976       11.2855196    
 O    5.46969986       9.64293003       9.29959011    
 O    8.09232998       8.27427959       9.26587963    
 O    0.00000000       0.00000000       12.4381800    
 O    0.00000000       0.00000000       15.6699600    
 O    0.00000000       0.00000000       16.9064007    
 O    0.00000000       0.00000000       19.1816101    
 O   -1.13532996       1.40496004       14.0207005    
 O  -0.978079975       1.57021999       16.0950794    
 O  -0.904449999       1.54884005       17.3402691    
 O  -0.685840011       1.11615002       19.7831593    
 O   -1.79980004       3.15331006       12.7250900    
 O   -1.81964004       3.06822991       15.9485998    
 O   -1.82570004       3.18701005       17.1844807    
 O   -1.66755998       2.58173990       19.4096909    
 O   -2.32978010       4.92451000       12.7636299    
 O   -2.74183989       4.66819000       15.7398100    
 O   -2.86576009       4.67821980       16.9626408    
 O   -3.02686000       4.34499979       19.8159599    
 O   -3.87602997       6.26542997       13.6891098    
 O   -3.69315004       6.16417980       15.8930998    
 O   -3.68179011       6.09560013       17.1138706    
 O   -3.61637998       6.63599014       19.7053604    
 O   -4.66754007       7.83862019       12.5740900    
 O   -4.52573013       7.80984020       15.7805405    
 O   -4.49739981       7.76514006       17.0224304    
 O   -4.34880018       7.77020979       19.3420391    
 O   -4.90386009       9.83759022       13.9270897    
 O   -5.47481012       9.33654022       15.9945402    
 O   -5.39199018       9.37246037       17.2299500    
 O   -5.60101986       9.16744995       19.7370796    
 O   -6.79744005       11.1877604       13.3686895    
 O   -6.30668020       10.9237804       15.7811899    
 O   -6.29127979       10.9548998       17.0246792    
 O   -6.15777016       10.4120502       19.3322906    
 O    1.78439999      0.280750006       14.0207005    
 O    1.84888995       6.19300008E-02   16.0950794    
 O    1.79356003       8.86000041E-03   17.3402691    
 O    1.30954003       3.58799994E-02   19.7831593    
 O   0.917379975       1.00319004       13.3686895    
 O   0.900610030       1.56018996       15.7811899    
 O   0.865960002       1.55797005       17.0246792    
 O    1.26933002       1.94501996       19.3322906    
 O   0.205019996       2.94483995       13.0982800    
 O   -5.77000016E-03   3.10298991       15.7906399    
 O    2.66000000E-03   3.11718988       17.0245609    
 O    3.55699994E-02   3.15236998       19.6212196    
 O   -1.27261996       3.91882992       13.7087803    
 O  -0.941299975       4.68449020       15.8616695    
 O  -0.951940000       4.67376995       17.0983295    
 O   -1.11795998       4.69318008       19.2509594    
 O   -2.38467002       6.05243015       13.3535404    
 O   -1.80804002       6.25368023       15.8443499    
 O   -1.82958996       6.23299980       17.0764103    
 O   -1.52638996       5.88959980       19.5875607    
 O   -2.30027008       7.81899977       13.7394600    
 O   -2.73918009       7.76761007       15.8765001    
 O   -2.74980998       7.75018978       17.1079197    
 O   -2.69391990       7.66497993       19.5971699    
 O   -3.85121012       9.00457001       13.6982899    
 O   -3.60552001       9.37901020       15.8781700    
 O   -3.62034011       9.37176037       17.1085205    
 O   -3.42234993       9.87127972       19.5536804    
 O   -4.75973988       10.8338604       13.0982800    
 O   -4.51738977       10.9373302       15.7906399    
 O   -4.50930977       10.9229298       17.0245609    
 O   -4.49528980       10.8768396       19.6212196    
 O    3.63074994      -1.79800000E-02   12.7250900    
 O    3.56698990       4.17400002E-02   15.9485998    
 O    3.67287993      -1.24000004E-02   17.1844807    
 O    3.06963992      0.153280005       19.4096909    
 O    2.77830005       1.68906999       13.9523802    
 O    2.74572992       1.57964003       16.2757092    
 O    2.79267001       1.57752001       17.5068302    
 O    3.27799010       1.12021005       20.3251209    
 O    1.13987005       3.31816006       13.9270897    
 O    1.85926998       3.07422996       15.9945402    
 O    1.78674996       3.12800002       17.2299500    
 O    2.06880999       3.04947996       19.7370796    
 O    1.33497000       4.64629984       13.6982899    
 O   0.887839973       4.67185020       15.8781700    
 O   0.901530027       4.66264009       17.1085205    
 O   0.369929999       4.58434010       19.5536804    
 O  -0.485240012       5.99110985       13.8162003    
 O    2.41199993E-02   6.23353004       15.9802599    
 O    1.95599999E-02   6.22851992       17.2150707    
 O   0.143309996       6.56915998       20.0480404    
 O   -1.23365998       8.39451027       13.3824501    
 O  -0.908200026       7.79490995       15.8009796    
 O  -0.897830009       7.80527020       17.0272293    
 O   -1.06771004       7.80586004       19.2856293    
 O   -1.77646995       9.90849972       13.8162003    
 O   -1.82121003       9.34617043       15.9802599    
 O   -1.82325995       9.35262966       17.2150707    
 O   -1.59013999       9.07514000       20.0480404    
 O   -3.17741990       11.6265402       13.7087803    
 O   -2.68000007       10.9567699       15.8616695    
 O   -2.68396997       10.9713497       17.0983295    
 O   -2.58415008       11.1054201       19.2509594    
 O    5.42963982     -0.444599986       12.7636299    
 O    5.41369009       4.04100008E-02   15.7398100    
 O    5.48434019      0.142710000       16.9626408    
 O    5.27630997      0.448830009       19.8159599    
 O    4.01042986       1.34153998       13.7072201    
 O    4.50411987       1.59460998       15.8169098    
 O    4.72093010       1.58138001       17.0161800    
 O    4.29831982       1.59449995       19.4555206    
 O    3.16196990       3.36066008       13.0880098    
 O    3.60832000       3.13282990       16.0219193    
 O    3.68891001       3.18219995       17.2506294    
 O    3.29812002       3.19275999       19.3516102    
 O    2.75287008       4.52230978       12.5740900    
 O    2.70688009       4.65951014       15.7805405    
 O    2.73143005       4.70638990       17.0224304    
 O    2.65274000       4.83255005       19.3420391    
 O    1.58623004       6.58223009       13.7394600    
 O    1.85019004       6.22781992       15.8765001    
 O    1.87057996       6.22733021       17.1079197    
 O    1.91643000       6.31832981       19.5971699    
 O   0.554509997       7.21820021       13.3824501    
 O   0.911059976       7.79984999       15.8009796    
 O   0.896899998       7.80364990       17.0272293    
 O   0.981329978       7.65622997       19.2856293    
 O   0.679139972       9.35494995       13.3824501    
 O   -2.85999989E-03   9.37290001       15.8009796    
 O    9.29999980E-04   9.35873985       17.0272293    
 O    8.63900036E-02   9.50557041       19.2856293    
 O  -0.773649991       11.5228004       13.3535404    
 O  -0.887679994       10.9228001       15.8443499    
 O  -0.894810021       10.9518003       17.0764103    
 O   -1.34379995       10.8609200       19.5875607    
 O    7.36403990      0.224020004       13.6891098    
 O    7.18490982      0.116269998       15.8930998    
 O    7.11984015      0.140719995       17.1138706    
 O    7.55513000     -0.186120003       19.7053604    
 O    6.20427990       1.24969006       13.7839098    
 O    6.19778013       1.65529001       14.9476995    
 O    6.22830009       1.75487006       18.2602997    
 O    6.37495995       1.15126002       19.5104294    
 O    5.38361979       3.22494006       13.0945597    
 O    5.35591984       3.12970996       15.7609301    
 O    5.52832985       3.04104996       16.9679298    
 O    5.34185982       3.10271001       19.8821507    
 O    4.19082022       3.54976010       14.0081100    
 O    4.55191994       4.73706007       15.9087400    
 O    4.63031006       4.73964024       17.1296902    
 O    4.90032005       4.37533998       19.8782997    
 O    3.71953011       5.99436998       13.6891098    
 O    3.71578002       6.20338011       15.8930998    
 O    3.76949000       6.24750996       17.1138706    
 O    3.26879001       6.03394985       19.7053604    
 O    3.15831995       7.39241982       13.3535404    
 O    2.69571996       7.79118013       15.8443499    
 O    2.72440004       7.78285980       17.0764103    
 O    2.87019992       8.21712971       19.5875607    
 O    2.26170993       9.06803989       13.8162003    
 O    1.79709005       9.38794994       15.9802599    
 O    1.80369997       9.38650036       17.2150707    
 O    1.44683003       9.32336044       20.0480404    
 O   0.714049995       10.5664196       13.7394600    
 O   0.888999999       10.9722300       15.8765001    
 O   0.879230022       10.9901400       17.1079197    
 O   0.777490020       10.9843397       19.5971699    
 O    9.12222004      0.122900002       12.5740900    
 O    9.02639008       1.44800004E-02   15.7805405    
 O    8.97350979       1.22900000E-02   17.0224304    
 O    8.90359974     -0.118940003       19.3420391    
 O    9.24549007       1.85448003       14.0081100    
 O    8.03670979       1.57354999       15.9087400    
 O    7.99527979       1.64014995       17.1296902    
 O    8.17576981       2.05612993       19.8782997    
 O    7.63249016       2.96374989       13.1745501    
 O    7.15685987       3.09482002       15.6555405    
 O    7.12081003       3.07909989       16.8880501    
 O    7.18354988       3.08863997       19.5575809    
 O    5.95798016       4.39202023       13.1745501    
 O    6.30929995       4.73839998       15.6555405    
 O    6.31372023       4.77748013       16.8880501    
 O    6.29059982       4.71836996       19.5575809    
 O    5.18766022       6.48592997       13.7839098    
 O    5.54217005       6.28875017       14.9476995    
 O    5.61316013       6.21253014       18.2602997    
 O    5.01707983       6.38732004       19.5104294    
 O    4.10767984       8.00391960       12.7636299    
 O    4.53568983       7.77522993       15.7398100    
 O    4.58896017       7.66288996       16.9626408    
 O    4.95808983       7.69000006       19.8159599    
 O    4.45004988       9.42228985       13.7087803    
 O    3.62129998       9.32639027       15.8616695    
 O    3.63591003       9.32254028       17.0983295    
 O    3.70211005       9.16905975       19.2509594    
 O    2.51624990       11.3167896       13.6982899    
 O    2.71767998       10.9167900       15.8781700    
 O    2.71881008       10.9332600       17.1085205    
 O    3.05241990       10.5120296       19.5536804    
 O    10.9715300     -0.671920002       13.9270897    
 O    10.8230896       7.30599985E-02   15.9945402    
 O    10.8127804      -1.66299995E-02   17.2299500    
 O    10.7397499      0.266900003       19.7370796    
 O    9.92368984       1.05802000       13.0880098    
 O    9.89780998       1.55849004       16.0219193    
 O    9.81476021       1.60358000       17.2506294    
 O    10.0010099       1.25987005       19.3516102    
 O    8.93039036       3.04988003       13.0945597    
 O    9.02672005       3.07349992       15.7609301    
 O    9.01729012       3.26714993       16.9679298    
 O    9.05712986       3.07483006       19.8821507    
 O    8.03215027       5.12805986       13.1745501    
 O    8.15645981       4.65060997       15.6555405    
 O    8.18809986       4.62725019       16.8880501    
 O    8.14846992       4.67681980       19.5575809    
 O    7.30860996       6.20901012       13.0945597    
 O    7.23999023       6.28061008       15.7609301    
 O    7.07700014       6.17562008       16.9679298    
 O    7.22363997       6.30629015       19.8821507    
 O    6.36413002       8.33992958       13.7072201    
 O    6.33646011       7.78584003       15.8169098    
 O    6.21659994       7.60469007       17.0161800    
 O    6.43924999       7.96411991       19.4555206    
 O    5.37659979       9.34850025       12.7250900    
 O    5.46018982       9.37386036       15.9485998    
 O    5.36036015       9.30922031       17.1844807    
 O    5.80546999       9.74880028       19.4096909    
 O    4.55472994       11.1889601       13.0982800    
 O    4.52315998       10.9273396       15.7906399    
 O    4.50664997       10.9275398       17.0245609    
 O    4.45973015       10.9384499       19.6212196    
 O    13.0875998      0.292879999       13.3686895    
 O    12.6136198      -1.50000007E-04   15.7811899    
 O    12.6328602      -2.90399995E-02   17.0246792    
 O    12.0959797      0.126770005       19.3322906    
 O    11.5631599       1.56154001       13.9523802    
 O    11.6742096       1.58805001       16.2757092    
 O    11.6525803       1.62976003       17.5068302    
 O    11.8059597       2.27870989       20.3251209    
 O    11.2480602       2.80236006       13.7072201    
 O    10.7820501       3.10337996       15.8169098    
 O    10.6850996       3.29775000       17.0161800    
 O    10.8850498       2.92521000       19.4555206    
 O    10.2306900       4.74821997       13.7839098    
 O    9.88267040       4.53979015       14.9476995    
 O    9.78116989       4.51642990       18.2602997    
 O    10.2305803       4.94524002       19.5104294    
 O    8.18630981       7.07958984       14.0081100    
 O    9.03400040       6.17322016       15.9087400    
 O    8.99703026       6.10404015       17.1296902    
 O    8.54654026       6.05236006       19.8782997    
 O    8.53697014       8.06515980       13.0880098    
 O    8.11649036       7.79251003       16.0219193    
 O    8.11896038       7.69804001       17.2506294    
 O    8.32349968       8.03118992       19.3516102    
 O    7.28116989       9.23322010       13.9523802    
 O    7.20268011       9.31614017       16.2757092    
 O    7.17738008       9.27655029       17.5068302    
 O    6.53868008       9.08489990       20.3251209    
 O    6.55846977       10.7981195       14.0207005    
 O    6.33673000       10.8516798       16.0950794    
 O    6.31842995       10.9261303       17.3402691    
 O    6.58383989       11.3318005       19.7831593    
