         258
 Energy:  -1211.6867949000000     
 X   0.00000000       0.00000000       0.00000000    
 X   14.5000000       0.00000000       0.00000000    
 X   0.00000000       14.5000000       0.00000000    
 X   0.00000000       0.00000000       14.5000000    
 X   14.5000000       14.5000000       0.00000000    
 X   14.5000000       0.00000000       14.5000000    
 X   0.00000000       14.5000000       14.5000000    
 X   14.5000000       14.5000000       14.5000000    
 Ni   0.00000000       0.00000000       0.00000000    
 Ni   0.00000000       0.00000000       2.90000010    
 Ni   0.00000000       0.00000000       5.80000019    
 Ni   0.00000000       0.00000000       8.69999981    
 Ni   0.00000000       0.00000000       11.6000004    
 Ni   0.00000000       2.90000010       0.00000000    
 Ni   0.00000000       2.90000010       2.90000010    
 Ni   0.00000000       2.90000010       5.80000019    
 Ni   0.00000000       2.90000010       8.69999981    
 Ni   0.00000000       2.90000010       11.6000004    
 Ni   0.00000000       5.80000019       0.00000000    
 Ni   0.00000000       5.80000019       2.90000010    
 Ni   0.00000000       5.80000019       5.80000019    
 Ni   0.00000000       5.80000019       8.69999981    
 Ni   0.00000000       5.80000019       11.6000004    
 Ni   0.00000000       8.69999981       0.00000000    
 Ni   0.00000000       8.69999981       2.90000010    
 Ni   0.00000000       8.69999981       5.80000019    
 Ni   0.00000000       8.69999981       8.69999981    
 Ni   0.00000000       8.69999981       11.6000004    
 Ni   0.00000000       11.6000004       0.00000000    
 Ni   0.00000000       11.6000004       2.90000010    
 Ni   0.00000000       11.6000004       5.80000019    
 Ni   0.00000000       11.6000004       8.69999981    
 Ni   0.00000000       11.6000004       11.6000004    
 Ni   2.90000010       0.00000000       0.00000000    
 Ni   2.90000010       0.00000000       2.90000010    
 Ni   2.90000010       0.00000000       5.80000019    
 Ni   2.90000010       0.00000000       8.69999981    
 Ni   2.90000010       0.00000000       11.6000004    
 Ni   2.90000010       2.90000010       0.00000000    
 Ni   2.90000010       2.90000010       2.90000010    
 Ni   2.90000010       2.90000010       5.80000019    
 Ni   2.90000010       2.90000010       8.69999981    
 Ni   2.90000010       2.90000010       11.6000004    
 Ni   2.90000010       5.80000019       0.00000000    
 Ni   2.90000010       5.80000019       2.90000010    
 Ni   2.90000010       5.80000019       5.80000019    
 Ni   2.90000010       5.80000019       8.69999981    
 Ni   2.90000010       5.80000019       11.6000004    
 Ni   2.90000010       8.69999981       0.00000000    
 Ni   2.90000010       8.69999981       2.90000010    
 Ni   2.90000010       8.69999981       5.80000019    
 Ni   2.90000010       8.69999981       8.69999981    
 Ni   2.90000010       8.69999981       11.6000004    
 Ni   2.90000010       11.6000004       0.00000000    
 Ni   2.90000010       11.6000004       2.90000010    
 Ni   2.90000010       11.6000004       5.80000019    
 Ni   2.90000010       11.6000004       8.69999981    
 Ni   2.90000010       11.6000004       11.6000004    
 Ni   5.80000019       0.00000000       0.00000000    
 Ni   5.80000019       0.00000000       2.90000010    
 Ni   5.80000019       0.00000000       5.80000019    
 Ni   5.80000019       0.00000000       8.69999981    
 Ni   5.80000019       0.00000000       11.6000004    
 Ni   5.80000019       2.90000010       0.00000000    
 Ni   5.80000019       2.90000010       2.90000010    
 Ni   5.80000019       2.90000010       5.80000019    
 Ni   5.80000019       2.90000010       8.69999981    
 Ni   5.80000019       2.90000010       11.6000004    
 Ni   5.80000019       5.80000019       0.00000000    
 Ni   5.80000019       5.80000019       2.90000010    
 Ni   5.80000019       5.80000019       5.80000019    
 Ni   5.80000019       5.80000019       8.69999981    
 Ni   5.80000019       5.80000019       11.6000004    
 Ni   5.80000019       8.69999981       0.00000000    
 Ni   5.80000019       8.69999981       2.90000010    
 Ni   5.80000019       8.69999981       5.80000019    
 Ni   5.80000019       8.69999981       8.69999981    
 Ni   5.80000019       8.69999981       11.6000004    
 Ni   5.80000019       11.6000004       0.00000000    
 Ni   5.80000019       11.6000004       2.90000010    
 Ni   5.80000019       11.6000004       5.80000019    
 Ni   5.80000019       11.6000004       8.69999981    
 Ni   5.80000019       11.6000004       11.6000004    
 Ni   8.69999981       0.00000000       0.00000000    
 Ni   8.69999981       0.00000000       2.90000010    
 Ni   8.69999981       0.00000000       5.80000019    
 Ni   8.69999981       0.00000000       8.69999981    
 Ni   8.69999981       0.00000000       11.6000004    
 Ni   8.69999981       2.90000010       0.00000000    
 Ni   8.69999981       2.90000010       2.90000010    
 Ni   8.69999981       2.90000010       5.80000019    
 Ni   8.69999981       2.90000010       8.69999981    
 Ni   8.69999981       2.90000010       11.6000004    
 Ni   8.69999981       5.80000019       0.00000000    
 Ni   8.69999981       5.80000019       2.90000010    
 Ni   8.69999981       5.80000019       5.80000019    
 Ni   8.69999981       5.80000019       8.69999981    
 Ni   8.69999981       5.80000019       11.6000004    
 Ni   8.69999981       8.69999981       0.00000000    
 Ni   8.69999981       8.69999981       2.90000010    
 Ni   8.69999981       8.69999981       5.80000019    
 Ni   8.69999981       8.69999981       8.69999981    
 Ni   8.69999981       8.69999981       11.6000004    
 Ni   8.69999981       11.6000004       0.00000000    
 Ni   8.69999981       11.6000004       2.90000010    
 Ni   8.69999981       11.6000004       5.80000019    
 Ni   8.69999981       11.6000004       8.69999981    
 Ni   8.69999981       11.6000004       11.6000004    
 Ni   11.6000004       0.00000000       0.00000000    
 Ni   11.6000004       0.00000000       2.90000010    
 Ni   11.6000004       0.00000000       5.80000019    
 Ni   11.6000004       0.00000000       8.69999981    
 Ni   11.6000004       0.00000000       11.6000004    
 Ni   11.6000004       2.90000010       0.00000000    
 Ni   11.6000004       2.90000010       2.90000010    
 Ni   11.6000004       2.90000010       5.80000019    
 Ni   11.6000004       2.90000010       8.69999981    
 Ni   11.6000004       2.90000010       11.6000004    
 Ni   11.6000004       5.80000019       0.00000000    
 Ni   11.6000004       5.80000019       2.90000010    
 Ni   11.6000004       5.80000019       5.80000019    
 Ni   11.6000004       5.80000019       8.69999981    
 Ni   11.6000004       5.80000019       11.6000004    
 Ni   11.6000004       8.69999981       0.00000000    
 Ni   11.6000004       8.69999981       2.90000010    
 Ni   11.6000004       8.69999981       5.80000019    
 Ni   11.6000004       8.69999981       8.69999981    
 Ni   11.6000004       8.69999981       11.6000004    
 Ni   11.6000004       11.6000004       0.00000000    
 Ni   11.6000004       11.6000004       2.90000010    
 Ni   11.6000004       11.6000004       5.80000019    
 Ni   11.6000004       11.6000004       8.69999981    
 Ni   11.6000004       11.6000004       11.6000004    
 Al   1.45000005       1.45000005       1.45000005    
 Al   1.45000005       1.45000005       4.34999990    
 Al   1.45000005       1.45000005       7.25000000    
 Al   1.45000005       1.45000005       10.1499996    
 Al   1.45000005       1.45000005       13.0500002    
 Al   1.45000005       4.34999990       1.45000005    
 Al   1.45000005       4.34999990       4.34999990    
 Al   1.45000005       4.34999990       7.25000000    
 Al   1.45000005       4.34999990       10.1499996    
 Al   1.45000005       4.34999990       13.0500002    
 Al   1.45000005       7.25000000       1.45000005    
 Al   1.45000005       7.25000000       4.34999990    
 Al   1.45000005       7.25000000       7.25000000    
 Al   1.45000005       7.25000000       10.1499996    
 Al   1.45000005       7.25000000       13.0500002    
 Al   1.45000005       10.1499996       1.45000005    
 Al   1.45000005       10.1499996       4.34999990    
 Al   1.45000005       10.1499996       7.25000000    
 Al   1.45000005       10.1499996       10.1499996    
 Al   1.45000005       10.1499996       13.0500002    
 Al   1.45000005       13.0500002       1.45000005    
 Al   1.45000005       13.0500002       4.34999990    
 Al   1.45000005       13.0500002       7.25000000    
 Al   1.45000005       13.0500002       10.1499996    
 Al   1.45000005       13.0500002       13.0500002    
 Al   4.34999990       1.45000005       1.45000005    
 Al   4.34999990       1.45000005       4.34999990    
 Al   4.34999990       1.45000005       7.25000000    
 Al   4.34999990       1.45000005       10.1499996    
 Al   4.34999990       1.45000005       13.0500002    
 Al   4.34999990       4.34999990       1.45000005    
 Al   4.34999990       4.34999990       4.34999990    
 Al   4.34999990       4.34999990       7.25000000    
 Al   4.34999990       4.34999990       10.1499996    
 Al   4.34999990       4.34999990       13.0500002    
 Al   4.34999990       7.25000000       1.45000005    
 Al   4.34999990       7.25000000       4.34999990    
 Al   4.34999990       7.25000000       7.25000000    
 Al   4.34999990       7.25000000       10.1499996    
 Al   4.34999990       7.25000000       13.0500002    
 Al   4.34999990       10.1499996       1.45000005    
 Al   4.34999990       10.1499996       4.34999990    
 Al   4.34999990       10.1499996       7.25000000    
 Al   4.34999990       10.1499996       10.1499996    
 Al   4.34999990       10.1499996       13.0500002    
 Al   4.34999990       13.0500002       1.45000005    
 Al   4.34999990       13.0500002       4.34999990    
 Al   4.34999990       13.0500002       7.25000000    
 Al   4.34999990       13.0500002       10.1499996    
 Al   4.34999990       13.0500002       13.0500002    
 Al   7.25000000       1.45000005       1.45000005    
 Al   7.25000000       1.45000005       4.34999990    
 Al   7.25000000       1.45000005       7.25000000    
 Al   7.25000000       1.45000005       10.1499996    
 Al   7.25000000       1.45000005       13.0500002    
 Al   7.25000000       4.34999990       1.45000005    
 Al   7.25000000       4.34999990       4.34999990    
 Al   7.25000000       4.34999990       7.25000000    
 Al   7.25000000       4.34999990       10.1499996    
 Al   7.25000000       4.34999990       13.0500002    
 Al   7.25000000       7.25000000       1.45000005    
 Al   7.25000000       7.25000000       4.34999990    
 Al   7.25000000       7.25000000       7.25000000    
 Al   7.25000000       7.25000000       10.1499996    
 Al   7.25000000       7.25000000       13.0500002    
 Al   7.25000000       10.1499996       1.45000005    
 Al   7.25000000       10.1499996       4.34999990    
 Al   7.25000000       10.1499996       7.25000000    
 Al   7.25000000       10.1499996       10.1499996    
 Al   7.25000000       10.1499996       13.0500002    
 Al   7.25000000       13.0500002       1.45000005    
 Al   7.25000000       13.0500002       4.34999990    
 Al   7.25000000       13.0500002       7.25000000    
 Al   7.25000000       13.0500002       10.1499996    
 Al   7.25000000       13.0500002       13.0500002    
 Al   10.1499996       1.45000005       1.45000005    
 Al   10.1499996       1.45000005       4.34999990    
 Al   10.1499996       1.45000005       7.25000000    
 Al   10.1499996       1.45000005       10.1499996    
 Al   10.1499996       1.45000005       13.0500002    
 Al   10.1499996       4.34999990       1.45000005    
 Al   10.1499996       4.34999990       4.34999990    
 Al   10.1499996       4.34999990       7.25000000    
 Al   10.1499996       4.34999990       10.1499996    
 Al   10.1499996       4.34999990       13.0500002    
 Al   10.1499996       7.25000000       1.45000005    
 Al   10.1499996       7.25000000       4.34999990    
 Al   10.1499996       7.25000000       7.25000000    
 Al   10.1499996       7.25000000       10.1499996    
 Al   10.1499996       7.25000000       13.0500002    
 Al   10.1499996       10.1499996       1.45000005    
 Al   10.1499996       10.1499996       4.34999990    
 Al   10.1499996       10.1499996       7.25000000    
 Al   10.1499996       10.1499996       10.1499996    
 Al   10.1499996       10.1499996       13.0500002    
 Al   10.1499996       13.0500002       1.45000005    
 Al   10.1499996       13.0500002       4.34999990    
 Al   10.1499996       13.0500002       7.25000000    
 Al   10.1499996       13.0500002       10.1499996    
 Al   10.1499996       13.0500002       13.0500002    
 Al   13.0500002       1.45000005       1.45000005    
 Al   13.0500002       1.45000005       4.34999990    
 Al   13.0500002       1.45000005       7.25000000    
 Al   13.0500002       1.45000005       10.1499996    
 Al   13.0500002       1.45000005       13.0500002    
 Al   13.0500002       4.34999990       1.45000005    
 Al   13.0500002       4.34999990       4.34999990    
 Al   13.0500002       4.34999990       7.25000000    
 Al   13.0500002       4.34999990       10.1499996    
 Al   13.0500002       4.34999990       13.0500002    
 Al   13.0500002       7.25000000       1.45000005    
 Al   13.0500002       7.25000000       4.34999990    
 Al   13.0500002       7.25000000       7.25000000    
 Al   13.0500002       7.25000000       10.1499996    
 Al   13.0500002       7.25000000       13.0500002    
 Al   13.0500002       10.1499996       1.45000005    
 Al   13.0500002       10.1499996       4.34999990    
 Al   13.0500002       10.1499996       7.25000000    
 Al   13.0500002       10.1499996       10.1499996    
 Al   13.0500002       10.1499996       13.0500002    
 Al   13.0500002       13.0500002       1.45000005    
 Al   13.0500002       13.0500002       4.34999990    
 Al   13.0500002       13.0500002       7.25000000    
 Al   13.0500002       13.0500002       10.1499996    
 Al   13.0500002       13.0500002       13.0500002    
