         259
 Energy:  -1104.5589989000000     
 X   0.00000000       0.00000000       0.00000000    
 X   10.5415001       0.00000000       0.00000000    
 X   5.27075005       9.12920666       0.00000000    
 X   0.00000000       0.00000000       28.5415001    
 X   15.8122501       9.12920666       0.00000000    
 X   10.5415001       0.00000000       28.5415001    
 X   5.27075005       9.12920666       28.5415001    
 X   15.8122501       9.12920666       28.5415001    
 Ni   2.73700003E-02   1.57999992E-02  -3.58761001    
 Ni   2.55999994E-03   1.47999998E-03  -4.78600003E-02
 Ni  -7.89600015E-02  -4.55899984E-02   4.44399023    
 Ni   7.37499967E-02   4.25800011E-02   7.75823021    
 Ni  -1.12500004E-02  -6.49000006E-03   10.6562901    
 Ni   1.02744997       1.82886004      -2.73622990    
 Ni   1.04277003       1.83359003      0.241950005    
 Ni  0.879329979       1.74408996       3.20760012    
 Ni   1.08683002       1.85170996       6.93232012    
 Ni   1.16714001       2.05996990       10.5326405    
 Ni   2.12760997       3.64456010      -3.26034999    
 Ni   2.12241006       3.67360997       8.75499994E-02
 Ni   2.13511992       3.61969995       3.43911004    
 Ni   2.22376990       3.67968988       6.87097979    
 Ni   2.29152989       3.66771007       11.8992596    
 Ni   3.15430999       5.47851992      -3.40410995    
 Ni   3.14612007       5.58665991      0.580789983    
 Ni   3.23218012       5.51234007       4.43570995    
 Ni   3.40193009       5.38866997       7.69191980    
 Ni   3.21858001       5.52033997       11.4760303    
 Ni   4.15740013       7.38354015      -3.13436007    
 Ni   4.38171005       7.08337021     -0.428460002    
 Ni   4.14667988       7.32528019       2.33726001    
 Ni   4.35797024       7.01200008       6.88105011    
 Ni   4.21637011       7.31366014       11.6732397    
 Ni   2.09756994      -2.46399995E-02  -2.73622990    
 Ni   2.10931993      -1.37299998E-02  0.241950005    
 Ni   1.95009005     -0.110529996       3.20760012    
 Ni   2.14703989       1.53700002E-02   6.93232012    
 Ni   2.36755991      -1.92099996E-02   10.5326405    
 Ni   3.17943001       1.83564997      -3.34912992    
 Ni   3.21299005       1.85502005      -5.33300005E-02
 Ni   3.14555001       1.81607997       3.75178003    
 Ni   3.30956006       1.91077995       6.71939993    
 Ni   3.26661992       1.88599002       11.0798101    
 Ni   4.24625015       3.67988992      -2.66477990    
 Ni   4.25906992       3.65213990      0.512750030    
 Ni   4.24083996       3.69775009       3.87646008    
 Ni   4.28467989       3.64107990       8.26727009    
 Ni   4.48743010       3.72796988       11.5375795    
 Ni   5.27894020       5.45492983      -3.39613008    
 Ni   5.43040991       5.34447002     -0.851610005    
 Ni   5.25663996       5.51185989       2.47175002    
 Ni   5.17653990       5.78024006       5.54541016    
 Ni   5.47322989       5.29012012       10.5751896    
 Ni   6.33689022       7.30903006      -3.36436009    
 Ni   6.25809002       7.33498001      0.595740020    
 Ni   6.33126020       7.36771011       4.32736015    
 Ni   6.26523018       7.30507994       7.98377991    
 Ni   6.33555984       7.32977009       11.4782896    
 Ni   4.22007990       2.02900004E-02  -3.26034999    
 Ni   4.24264002       1.24999997E-03   8.75499994E-02
 Ni   4.20231009       3.92200015E-02   3.43911004    
 Ni   4.29859018       8.60000029E-02   6.87097979    
 Ni   4.32209015      0.150670007       11.8992596    
 Ni   5.31000996       1.83740997      -2.66477990    
 Ni   5.29237986       1.86239004      0.512750030    
 Ni   5.32277012       1.82379997       3.87646008    
 Ni   5.29560995       1.89010000       8.26727009    
 Ni   5.47222996       2.02223992       11.5375795    
 Ni   6.31407022       3.64543009      -4.31652021    
 Ni   6.31748009       3.64739990     -0.222700000    
 Ni   6.29567003       3.63480997       2.46441007    
 Ni   6.29538012       3.63463998       5.55225992    
 Ni   6.49390984       3.74925995       8.74508953    
 Ni   7.35676003       5.42790985      -2.71414995    
 Ni   7.27618980       5.52860022      0.393579990    
 Ni   7.27625990       5.46393013       3.68443990    
 Ni   7.22259998       5.42410994       7.68454981    
 Ni   7.18667984       5.30509996       12.0979004    
 Ni   8.44456959       7.27105999      -3.16901994    
 Ni   8.41691971       7.24539995       7.29900002E-02
 Ni   8.41337967       7.27704000       3.42734003    
 Ni   8.26667023       7.11982012       6.49165010    
 Ni   8.42858028       7.39890003       12.0304899    
 Ni   6.32169008      -7.55000021E-03  -3.40410995    
 Ni   6.41125011      -6.87099993E-02  0.580789983    
 Ni   6.38992023       4.29800004E-02   4.43570995    
 Ni   6.36769009      0.251819998       7.69191980    
 Ni   6.39004993       2.72000004E-02   11.4760303    
 Ni   7.36357021       1.84423006      -3.39613008    
 Ni   7.34364986       2.03063989     -0.851610005    
 Ni   7.40173006       1.79645002       2.47175002    
 Ni   7.59411001       1.59290004       5.54541016    
 Ni   7.31798983       2.09489989       10.5751896    
 Ni   8.37907982       3.65719008      -2.71414995    
 Ni   8.42599964       3.53706002      0.393579990    
 Ni   8.37003040       3.56945992       3.68443990    
 Ni   8.30871964       3.54290009       7.68454981    
 Ni   8.18768978       3.57130003       12.0979004    
 Ni   9.47828007       5.47229004      -3.48727989    
 Ni   9.44871044       5.45521021       8.17399994E-02
 Ni   9.55214977       5.51493979       3.68563008    
 Ni   9.46273041       5.46330976       7.33366013    
 Ni   9.24549961       5.33789015       10.7309704    
 Ni   10.6118603       7.25956011      -2.76521993    
 Ni   10.5184698       7.34422016      0.457379997    
 Ni   10.7374401       7.32299995       3.55801010    
 Ni   10.5001898       7.29689980       6.83111000    
 Ni   10.3633699       7.47017002       11.0727797    
 Ni   8.47303009      -9.13600028E-02  -3.13436007    
 Ni   8.32522964      0.252979994     -0.428460002    
 Ni   8.41722012      -7.15100020E-02   2.33726001    
 Ni   8.25154972      0.268110007       6.88105011    
 Ni   8.44200039      -5.34000015E-03   11.6732397    
 Ni   9.49825954       1.83339000      -3.36436009    
 Ni   9.48132038       1.75216997      0.595740020    
 Ni   9.54625034       1.79918003       4.32736015    
 Ni   9.45899963       1.77330005       7.98377991    
 Ni   9.51554966       1.82186997       11.4782896    
 Ni   10.5192099       3.67768002      -3.16901994    
 Ni   10.4831600       3.66656995       7.29900002E-02
 Ni   10.5087996       3.64768004       3.42734003    
 Ni   10.2992802       3.59924006       6.49165010    
 Ni   10.6219301       3.59992003       12.0304899    
 Ni   11.5928898       5.56035995      -2.76521993    
 Ni   11.6195202       5.43715000      0.457379997    
 Ni   11.7106199       5.63739014       3.55801010    
 Ni   11.5693903       5.44498014       6.83111000    
 Ni   11.6510401       5.23986006       11.0727797    
 Ni   12.6091700       7.27991009      -3.74776006    
 Ni   12.6459103       7.30111980     -0.197720006    
 Ni   12.6691599       7.31453991       4.56061983    
 Ni   12.5508900       7.24626017       7.57114983    
 Ni   12.6238003       7.28836012       10.5663795    
 O    1.56524003      0.903689981      -1.32690001    
 O    1.63454998      0.943710029       1.50864995    
 O    1.30987000      0.756250024       4.59527016    
 O    1.72557998      0.996259987       9.32777023    
 O   0.906090021      0.523130000       13.2295504    
 O    2.63192010       2.78889990      -1.35754001    
 O    2.67986012       2.72223997       2.05912995    
 O    2.64005995       2.68647003       5.17021990    
 O    2.88608003       2.77739000       8.49759960    
 O    2.11775994       2.69179010       13.2866898    
 O    3.72240996       4.64642000     -0.759549975    
 O    3.65961003       4.61023998       2.31002998    
 O    3.87625003       4.57028008       5.91722012    
 O    3.82666993       4.68888998       10.0701799    
 O    4.33158016       4.61479998       15.1991796    
 O    4.67783022       6.44914007      -1.88074005    
 O    4.77381992       6.23321009      0.876060009    
 O    4.66478014       6.51925993       3.99825001    
 O    4.69058990       6.80615997       10.1324100    
 O    4.66549015       6.74235010       15.1077995    
 O    5.83154011       8.17718983      -1.38242996    
 O    5.72773981       8.16370964       2.48105001    
 O    5.61356020       7.87580013       6.26542997    
 O    5.96378994       8.08154011       9.47597027    
 O    5.87498999       8.36987972       13.0482502    
 O    3.73122001      0.884859979      -1.35754001    
 O    3.69745994      0.959710002       2.05912995    
 O    3.64657998      0.943130016       5.17021990    
 O    3.84833002       1.11073005       8.49759960    
 O    3.39003992      0.488139987       13.2866898    
 O    4.76067019       2.74856997      -1.21684003    
 O    4.60875988       2.66087008       1.84150004    
 O    4.84039021       2.79460001       6.03308010    
 O    4.97214985       2.87067008       9.87269020    
 O    5.29193020       3.05530000       12.9020395    
 O    5.92604017       4.34014988      -2.18104005    
 O    5.75293016       4.63197994       1.19014001    
 O    5.65218019       4.64738989       4.03264999    
 O    5.60974979       4.68938017       6.85930014    
 O    5.16929007       5.52995014       14.7678900    
 O    6.85597992       6.44781017      -1.38101995    
 O    6.87584019       6.39228010       1.90770996    
 O    6.86094999       6.08232021       5.35228014    
 O    6.74722004       6.09692001       9.16322041    
 O    6.56783009       6.33225012       13.3039598    
 O    7.90319014       8.26379967      -1.11157000    
 O    7.93904018       8.19729996       1.96323001    
 O    7.83664989       8.20553017       5.26196003    
 O    8.39935017       8.04411030       9.49888992    
 O    8.21284008       8.46535969       13.4813099    
 O    5.88511992      0.900500000     -0.759549975    
 O    5.82239008      0.864189982       2.31002998    
 O    5.89611006       1.07178998       5.91722012    
 O    5.97403002      0.969550014       10.0701799    
 O    6.16233015       1.44386005       15.1991796    
 O    6.72170019       2.96201992      -2.18104005    
 O    6.88787985       2.66618991       1.19014001    
 O    6.85085011       2.57122993       4.03264999    
 O    6.86600018       2.51348996       6.85930014    
 O    7.37372017       1.71176004       14.7678900    
 O    7.81980991       4.51477003     -0.797510028    
 O    8.00028038       4.61895990       2.38917994    
 O    7.77315998       4.48784018       6.27811003    
 O    7.40412998       4.27476978       10.3669100    
 O    7.06228018       4.07741022       15.1829700    
 O    8.98558044       6.39529991      -1.34325004    
 O    9.00364017       6.38018990       1.83668005    
 O    8.97758007       6.38472986       5.03002024    
 O    8.85700035       6.25792980       8.60406971    
 O    8.69680977       6.03204012       13.0968800    
 O    9.96325016       8.29829025      -1.68687999    
 O    9.94104958       8.23270035       1.64061999    
 O    10.1410799       8.40382957       4.83888006    
 O    9.69968033       8.28857040       9.07561970    
 O    10.7633896       8.01589012       13.2292500    
 O    7.92402983      0.826550007      -1.88074005    
 O    7.78501987       1.01763999      0.876060009    
 O    7.97823000      0.780189991       3.99825001    
 O    8.23960972      0.659089983       10.1324100    
 O    8.17179012      0.669260025       15.1077995    
 O    9.01196003       2.71355009      -1.38101995    
 O    8.97379017       2.75851011       1.90770996    
 O    8.69791985       2.90058994       5.35228014    
 O    8.65369987       2.79480004       9.16322041    
 O    8.76780987       2.52178001       13.3039598    
 O    10.0312901       4.58409023      -1.34325004    
 O    10.0272303       4.60728979       1.83668005    
 O    10.0181303       4.58244991       5.03002024    
 O    9.84803009       4.54143000       8.60406971    
 O    9.57229996       4.51562977       13.0968800    
 O    11.1225500       6.42159986     -0.805589974    
 O    11.0364304       6.37189007       2.00320005    
 O    11.1788197       6.45409012       5.30394983    
 O    10.9389200       6.31558990       9.97099018    
 O    10.9455004       6.31937981       13.0852404    
 O    12.0503798       8.20207977      -1.72721004    
 O    12.1522703       8.14591026       1.92560005    
 O    12.4156504       8.44309998       6.06102991    
 O    11.9065599       8.15849018       8.86324024    
 O    11.8090496       8.89630985       13.1590300    
 O    9.99742031      0.961669981      -1.38242996    
 O    9.93385029      0.878520012       2.48105001    
 O    9.62742996      0.923590004       6.26542997    
 O    9.98071003       1.12401998       9.47597027    
 O    10.1860199      0.902949989       13.0482502    
 O    11.1082602       2.71246004      -1.11157000    
 O    11.0685902       2.77676010       1.96323001    
 O    11.0245199       2.68397999       5.26196003    
 O    11.1660805       3.25200009       9.49888992    
 O    11.4376402       2.87984991       13.4813099    
 O    12.1681499       4.47927999      -1.68687999    
 O    12.1002502       4.49284983       1.64061999    
 O    12.3484697       4.58052015       4.83888006    
 O    12.0279598       4.25587988       9.07561970    
 O    12.3236599       5.31341982       13.2292500    
 O    13.1283998       6.33488989      -1.72721004    
 O    13.1307001       6.45122004       1.92560005    
 O    13.5197601       6.53072023       6.06102991    
 O    13.0187397       6.23214006       8.86324024    
 O    13.6089602       5.77877998       13.1590300    
 O    14.1478796       8.16827965      -1.39146996    
 O    14.3219099       8.26875973      0.904560030    
 O    14.2529802       8.22896004       3.74499989    
 O    14.4011698       8.31451988       8.33831024    
 O    13.8301401       7.98482990       12.8375101    
 O    6.26473999       3.61695004       16.3362007    
