         342
 Energy:  -2287.4892043000000     
 X   0.00000000       0.00000000       0.00000000    
 X   14.4150839       0.00000000       0.00000000    
 X  -7.20754194       12.4838276       0.00000000    
 X   0.00000000       0.00000000       32.5162544    
 X   7.20754194       12.4838276       0.00000000    
 X   14.4150839       0.00000000       32.5162544    
 X  -7.20754194       12.4838276       32.5162544    
 X   7.20754194       12.4838276       32.5162544    
 Al  -0.00000000       0.00000000       1.91146004    
 Al   2.20000002E-04   2.77442002      0.971130013    
 Al  -1.53000001E-03   2.77550006       4.10417986    
 Al   2.40305996       1.38742995       2.22843003    
 Al   2.40268993       1.38932002       6.19955015    
 Al  -0.00000000       0.00000000       4.54296017    
 Al  -0.00000000       0.00000000       8.32664967    
 Al   9.80000012E-04   2.77990007       6.73509979    
 Al   3.09299994E-02   2.73995996       10.7204504    
 Al   2.40720010       1.38903999       8.86077976    
 Al   2.39916992       1.28469002       12.3797798    
 Al  -0.00000000       0.00000000       10.8895903    
 Al  -2.40204000       4.16155005       1.91444004    
 Al  -2.40250993       6.93519020      0.972670019    
 Al  -2.40146995       6.93747997       4.10145998    
 Al   9.50000016E-04   5.54874992       2.22955990    
 Al  -8.59999971E-04   5.54577017       6.20624018    
 Al  -2.40074992       4.15989017       4.54266024    
 Al  -2.39614010       4.16602993       8.38632011    
 Al  -2.40669990       6.93783998       6.74414015    
 Al  -2.36029005       6.88670015       10.6707201    
 Al   2.60000001E-03   5.54939985       8.86065006    
 Al   8.35900009E-02   5.45805979       12.2635002    
 Al  -2.37899995       4.10760021       10.9633303    
 Al  -4.80438995       8.32199001       1.91377997    
 Al  -4.80494022       11.0964298      0.971130013    
 Al  -4.80312014       11.0973997       4.10417986    
 Al  -2.40265989       9.70862961       2.22955990    
 Al  -2.40433002       9.71168995       6.20624018    
 Al  -4.80814981       8.32334042       4.54201984    
 Al  -4.80738020       8.31282997       8.39885998    
 Al  -4.80058002       11.0930300       6.73509979    
 Al  -4.85014009       11.0870600       10.7204504    
 Al  -2.40292001       9.70687008       8.86065006    
 Al  -2.52252007       9.68241024       12.2635002    
 Al  -4.82815981       8.36670017       10.9757204    
 Al   4.80502987      -5.49999997E-04   1.91444004    
 Al   4.80590010       2.77413011      0.975279987    
 Al   4.80431986       2.77296996       4.10129976    
 Al   7.20708990       1.38680005       2.23099995    
 Al   7.20782995       1.38487995       6.20027018    
 Al   4.80293989      -8.39999993E-04   4.54266024    
 Al   4.80596018      -7.89999962E-03   8.38632011    
 Al   4.80492020       2.78168011       6.73668003    
 Al   4.79628992       2.75002003       10.6995697    
 Al   7.20875978       1.38882995       8.84424973    
 Al   7.20796013       1.39409006       12.1209497    
 Al   4.74678993       6.47999998E-03   10.9633303    
 Al   2.40267992       4.16210985       1.91377997    
 Al   2.40274000       6.93560982      0.972670019    
 Al   2.40023994       6.93535995       4.10145998    
 Al   4.80500984       5.54891014       2.23099995    
 Al   4.80296993       5.54923010       6.20027018    
 Al   2.40338993       4.15817022       4.54201984    
 Al   2.41211009       4.16410017       8.39885998    
 Al   2.40253997       6.93065023       6.74414015    
 Al   2.42363000       6.99640989       10.6707201    
 Al   4.80593014       5.54644012       8.84424973    
 Al   4.81088018       5.54450989       12.1209497    
 Al   2.37584996       4.11917019       10.9757204    
 Al   0.00000000       8.32254982       1.91501999    
 Al  -2.50000012E-04   11.0968704      0.972670019    
 Al   1.21999998E-03   11.0948200       4.10145998    
 Al   2.40171003       9.71026993       2.22955990    
 Al   2.40520000       9.71018982       6.20624018    
 Al   0.00000000       8.32254982       4.54134989    
 Al   0.00000000       8.32254982       8.38961983    
 Al   4.14999994E-03   11.0991697       6.74414015    
 Al  -6.33400008E-02   11.0845499       10.6707201    
 Al   2.40032005       9.71138000       8.86065006    
 Al   2.43893003       9.82719040       12.2635002    
 Al   0.00000000       8.32254982       11.0062599    
 Al   9.60925007      -2.69999990E-04   1.91377997    
 Al   9.60966015       2.77497005      0.975279987    
 Al   9.61145973       2.77417994       4.10129976    
 Al   12.0120096       1.38739002       2.22843003    
 Al   12.0105600       1.38611996       6.19955015    
 Al   9.61229992       2.30999989E-03   4.54201984    
 Al   9.60280991       6.89999992E-03   8.39885998    
 Al   9.60361958       2.77034998       6.73668003    
 Al   9.63535023       2.77870011       10.6995697    
 Al   12.0085497       1.39016998       8.86077976    
 Al   12.1029196       1.43539000       12.3797798    
 Al   9.65985012      -2.03999993E-03   10.9757204    
 Al   7.20754004       4.16128016       1.91588998    
 Al   7.20704985       6.93473005      0.975279987    
 Al   7.20684004       6.93667984       4.10129976    
 Al   9.61054039       5.54812002       2.23099995    
 Al   9.61182976       5.54971981       6.20027018    
 Al   7.20754004       4.16128016       4.53970003    
 Al   7.20754004       4.16128016       8.41312981    
 Al   7.21407986       6.93180990       6.73668003    
 Al   7.19097996       6.95511007       10.6995697    
 Al   9.60793972       5.54855013       8.84424973    
 Al   9.60379028       5.54522991       12.1209497    
 Al   7.20754004       4.16128016       11.0121698    
 Al   4.80455017       8.32283020       1.91444004    
 Al   4.80470991       11.0968103      0.971130013    
 Al   4.80464983       11.0947504       4.10417986    
 Al   7.20757008       9.70899963       2.22843003    
 Al   7.20939016       9.70837975       6.19955015    
 Al   4.80533981       8.32478046       4.54266024    
 Al   4.79771996       8.32569981       8.38632011    
 Al   4.79959011       11.0947304       6.73509979    
 Al   4.81920004       11.1406403       10.7204504    
 Al   7.20689011       9.70462036       8.86077976    
 Al   7.12054014       9.76373959       12.3797798    
 Al   4.83975983       8.36975002       10.9633303    
 O    1.49258006       1.50999997E-03   3.21902990    
 O    3.21305990      0.114610001       1.06768000    
 O  -0.747600019       1.29185998       3.21902990    
 O    1.65950000       2.86772990       3.21677995    
 O    3.10021996       2.72563004       1.06812000    
 O   0.896179974       1.32141995       1.06595004    
 O    3.87984991       1.39480996       7.55498981    
 O   0.737770021       1.49766004       5.40209007    
 O    1.66934001       2.66708994       7.53902006    
 O    1.68309999      0.116080001       7.51781988    
 O   0.735889971       4.05104017       5.39522982    
 O   -1.47377002       2.77759004       5.40030003    
 O    1.59080005       2.78162003       11.8500605    
 O   -1.64646995       2.88872004       9.68968964    
 O  -0.806320012       4.01999998       11.8586702    
 O  -0.692600012       1.41812003       11.7431297    
 O   0.728100002       1.30360997       9.65631008    
 O    3.32493997      -1.84799992E-02   9.68968964    
 O  -0.911769986       4.16499996       3.21834993    
 O   0.810360014       4.27652979       1.06762004    
 O   -3.15247989       5.45188999       3.21723008    
 O  -0.741609991       7.02798986       3.21728992    
 O   0.696410000       6.88681984       1.06965005    
 O   -1.50672996       5.48259020       1.06911004    
 O    1.47617996       5.55239010       7.56113005    
 O   -1.66498995       5.66024017       5.39714003    
 O  -0.732940018       6.82155991       7.55306005    
 O  -0.732940018       4.27342987       7.54968977    
 O   -1.66917002       8.21094036       5.40010023    
 O   -3.87532997       6.93548012       5.39944983    
 O  -0.798850000       6.90170002       11.8388996    
 O   -4.06368017       7.01438999       9.70773029    
 O   -3.19152999       8.14227009       11.7188396    
 O   -3.09558010       5.54194021       11.8604898    
 O   -1.66681004       5.43835020       9.71061993    
 O   0.913869977       4.14511013       9.75800991    
 O   -3.31240010       8.32721996       3.21598005    
 O   -1.59158003       8.43731022       1.06965005    
 O   -5.55376005       9.61279964       3.21677995    
 O   -3.14466000       11.1909399       3.21834993    
 O   -1.70611000       11.0474005       1.06911004    
 O   -3.90914011       9.64377022       1.06762004    
 O  -0.933430016       9.70779037       7.55306005    
 O   -4.06719017       9.82100964       5.39522982    
 O   -3.14017010       10.9818602       7.54968977    
 O   -3.13712001       8.42922974       7.56113005    
 O   -4.06519985       12.3713598       5.40030003    
 O   -6.27941990       11.0960703       5.40209007    
 O   -3.32295990       11.1721201       11.8586702    
 O   -6.44262981       11.2014704       9.65631008    
 O   -5.63312006       12.3745699       11.7431297    
 O   -5.59398985       9.71533966       11.8500605    
 O   -4.07470989       9.61983967       9.75800991    
 O   -1.48080003       8.30795002       9.71154976    
 O    6.29770994       4.18000016E-03   3.21723008    
 O    8.01694012      0.114900000       1.07114995    
 O    4.05548000       1.29056001       3.21690989    
 O    6.46551991       2.86714005       3.21861005    
 O    7.90385008       2.72591996       1.07088006    
 O    5.70073986       1.32169998       1.07172000    
 O    8.67125988       1.39313996       7.54097986    
 O    5.54459000       1.49941003       5.39849997    
 O    6.46975994       2.66633010       7.55511999    
 O    6.47143984      0.112350002       7.54498005    
 O    5.53961992       4.04927015       5.39939022    
 O    3.33451009       2.77423000       5.40085983    
 O    6.31480980       2.83724999       11.8729897    
 O    3.14316010       2.89195991       9.69472980    
 O    4.01327991       4.07098007       11.7734804    
 O    4.04301977       1.42844999       11.7640600    
 O    5.55131006       1.29018998       9.73491955    
 O    8.10647964       1.20599996E-02   9.70773029    
 O    3.89420009       4.16449022       3.22147012    
 O    5.61634016       4.27593994       1.07088006    
 O    1.65216005       5.45159006       3.21598005    
 O    4.06231022       7.02776003       3.21723008    
 O    5.50180006       6.88599014       1.07172000    
 O    3.29857993       5.48350000       1.07114995    
 O    6.28177977       5.54768991       7.55511999    
 O    3.13890004       5.65995979       5.39944983    
 O    4.06911993       6.82321978       7.54498005    
 O    4.07841015       4.27772999       7.54097986    
 O    3.13811994       8.21179008       5.39714003    
 O   0.931240022       6.93281984       5.40010023    
 O    3.95586991       7.03202009       11.8604898    
 O   0.753050029       7.04744005       9.71154976    
 O    1.62990999       8.34115982       11.8388996    
 O    1.75188994       5.64874983       11.7188396    
 O    3.16475010       5.45738983       9.70773029    
 O    5.72277021       4.16579008       9.73445034    
 O    1.49193001       8.32758045       3.21728992    
 O    3.21285009       8.43766022       1.06911004    
 O  -0.750320017       9.61207962       3.21728992    
 O    1.66024005       11.1888504       3.21598005    
 O    3.09877992       11.0473604       1.06762004    
 O   0.895179987       9.64352036       1.06965005    
 O    3.87312007       9.71236038       7.54968977    
 O   0.737919986       9.82390022       5.40010023    
 O    1.66094995       10.9860401       7.56113005    
 O    1.66637003       8.43830013       7.55306005    
 O   0.736419976       12.3722200       5.39944983    
 O   -1.47314000       11.0956297       5.39714003    
 O    1.43963003       11.1766396       11.7188396    
 O   -1.66438997       11.2081499       9.71061993    
 O    6.34723997      -9.01200026E-02   11.8604898    
 O  -0.831070006       9.72480011       11.8388996    
 O   0.727760017       9.61227036       9.71154976    
 O    3.33119988       8.32116032       9.71061993    
 O    11.1018105       3.29999998E-03   3.21677995    
 O    12.8226099      0.115400001       1.06595004    
 O    8.86141968       1.29023004       3.22147012    
 O    11.2696896       2.86686993       3.21690989    
 O    12.7093000       2.72529006       1.06768000    
 O    10.5045099       1.32205999       1.06812000    
 O    13.4730101       1.39955997       7.51781988    
 O    10.3452702       1.50065994       5.40085983    
 O    11.2672195       2.66264009       7.55498981    
 O    11.2706404      0.112140000       7.53902006    
 O    10.3442602       4.05206013       5.39849997    
 O    8.13850975       2.77282000       5.39939022    
 O    11.1564903       2.78713989       11.7640600    
 O    7.94602013       2.87316990       9.73445034    
 O    8.80055046       4.05016994       11.8729897    
 O    8.88286972       1.44011998       11.7734804    
 O    10.3389902       1.27608001       9.69472980    
 O    12.9220800      -2.12600008E-02   9.65631008    
 O    8.69931030       4.16573000       3.21861005    
 O    10.4200897       4.27613020       1.07172000    
 O    6.45779991       5.45096016       3.21861005    
 O    8.86699963       7.02909994       3.22147012    
 O    10.3071098       6.88541985       1.07114995    
 O    8.10245037       5.48196983       1.07088006    
 O    11.0820704       5.54826021       7.54498005    
 O    7.94449997       5.66174984       5.39939022    
 O    8.87296009       6.81295013       7.54097986    
 O    8.87108994       4.26981020       7.55511999    
 O    7.94283009       8.20893955       5.40085983    
 O    5.73376989       6.93236017       5.39849997    
 O    8.72646999       6.97274017       11.7734804    
 O    5.54923010       7.03115988       9.73491955    
 O    6.42309999       8.26823997       11.7640600    
 O    6.50725985       5.59641981       11.8729897    
 O    7.95383978       5.44487000       9.73445034    
 O    10.5220900       4.16247988       9.73491955    
 O    6.29746008       8.32639980       3.21690989    
 O    8.01790047       8.43614006       1.06812000    
 O    4.05642986       9.61170959       3.21834993    
 O    6.46256018       11.1904602       3.21902990    
 O    7.90384007       11.0469999       1.06595004    
 O    5.70027018       9.64393044       1.06768000    
 O    8.68264961       9.70458984       7.53902006    
 O    5.53895998       9.81871033       5.40030003    
 O    6.46652985       10.9681797       7.51781988    
 O    6.47556019       8.42638016       7.55498981    
 O    5.54164982       12.3739300       5.40209007    
 O    3.33129001       11.0956097       5.39522982    
 O    6.32570982       11.1749697       11.7431297    
 O    3.16084003       11.2027102       9.75800991    
 O    4.00318003       12.4707003       11.8500605    
 O    4.12928009       9.77554035       11.8586702    
 O    5.52906990       9.61359024       9.68968964    
 O    8.14046955       8.31579018       9.69472980    
 O   -0.00000000       0.00000000       14.0495005    
 O   -1.48792005       1.61113000       14.8049097    
 O   -2.09424996       2.46441007       13.9607601    
 O   -2.05767989       4.79597998       15.0786200    
 O   -4.60839987       6.82103014       13.8149099    
 O   -4.52721977       7.33762980       14.9927797    
 O   -4.37853003       9.49470043       14.6637802    
 O   -6.73270988       10.9088802       14.0892401    
 O    2.13923001      0.483009994       14.8049097    
 O    1.12653005       1.19869006       14.0892401    
 O   0.197650000       2.99113989       14.6555996    
 O  -0.865859985       4.45552015       15.3102903    
 O   -1.95080996       6.16052008       13.8582697    
 O   -2.39089990       6.91739988       14.8241997    
 O   -3.64231992       9.06822968       13.5816603    
 O   -4.71596003       10.8170900       14.6555996    
 O    3.18137002      0.581459999       13.9607601    
 O    3.07891989       2.54140997       15.7941198    
 O    1.17416000       3.94456005       14.6637802    
 O    1.17537999       4.79537010       13.5816603    
 O   0.101539999       7.19349003       15.6964397    
 O   -1.06738997       8.77353954       14.4374304    
 O   -1.02857006       8.79915047       15.6964397    
 O   -2.91601992       11.0059299       15.3102903    
 O    5.18228006     -0.615980029       15.0786200    
 O    5.24219990       1.31331003       14.1782303    
 O    3.06900001       2.62981009       14.5674896    
 O    3.11657000       4.89433002       14.9927797    
 O    2.41234994       6.95453978       14.8241997    
 O   0.143130004       7.17266989       14.4374304    
 O   0.924269974       9.02145004       14.4374304    
 O  -0.896979988       11.0930204       13.8582697    
 O    8.21138000      0.580479980       13.8149099    
 O    6.39221001       1.21905005       14.7068005    
 O    4.79308987       3.39426994       14.4141598    
 O    4.96822977       3.56228995       15.6487904    
 O    3.60455990       5.08232021       13.8149099    
 O    2.84777999       7.71411991       13.8582697    
 O   0.927030027       8.97502041       15.6964397    
 O   -2.14399993E-02   11.0957098       14.8241997    
 O    8.61818027      0.251870006       14.9927797    
 O    8.84593010       2.52147007       15.6487904    
 O    6.98515987       3.37181997       14.5317202    
 O    6.63503981       4.74858999       14.5317202    
 O    5.06717014       6.33849001       14.7068005    
 O    4.08294010       8.30383015       15.0786200    
 O    3.78187990       9.50621033       15.3102903    
 O    2.46693993       11.1040497       13.5816603    
 O    10.4119101     -0.955429971       14.6637802    
 O    10.6030998       1.34292996       14.5674896    
 O    9.07901955       2.45380998       14.4141598    
 O    8.00242043       4.36342001       14.5317202    
 O    7.75052023       6.63574982       14.4141598    
 O    5.72380018       7.28730011       14.1782303    
 O    6.12041998       9.43795013       13.9607601    
 O    4.51832008       11.1594296       14.6555996    
 O    12.8137197      0.376260012       14.0892401    
 O    10.6746998       1.39572001       15.7941198    
 O    10.6566296       3.88321996       14.1782303    
 O    10.1632500       4.92629004       14.7068005    
 O    7.80846024       6.40007019       15.6487904    
 O    7.95052004       8.51109028       14.5674896    
 O    7.86899996       8.54669952       15.7941198    
 O    6.55622005       10.3896904       14.8049097    
