         261
 Energy:  -1422.0787920999999     
 X   0.00000000       0.00000000       0.00000000    
 X   0.00000000      -15.1462221       0.00000000    
 X   0.00000000      -7.57311106      -13.1170130    
 X   29.0000000       0.00000000       0.00000000    
 X   0.00000000      -22.7193336      -13.1170130    
 X   29.0000000      -15.1462221       0.00000000    
 X   29.0000000      -7.57311106      -13.1170130    
 X   29.0000000      -22.7193336      -13.1170130    
 Ni   3.14425993      -10.0974798      -5.82965994    
 Ni   3.14338994      -12.6216402      -10.2019196    
 Ni   3.14356995      -7.57294989      -1.45802999    
 Ni   3.14304996      -15.1460104      -5.82956982    
 Ni   3.14508009      -17.6705894      -10.2015600    
 Ni   3.14356995      -12.6220102      -1.45802999    
 Ni   3.14304996      -5.04895020      -5.82956982    
 Ni   3.14338994      -7.57332993      -10.2019196    
 Ni   3.14147997      -2.52436996      -1.45745003    
 Ni   5.11861992      -12.6211395      -7.28698015    
 Ni   5.11641979      -15.1443596      -11.6585903    
 Ni   5.11726999      -10.0974798      -2.91698003    
 Ni   5.11603022      -17.6705894      -7.28614998    
 Ni   5.11641979      -20.1968193      -11.6585903    
 Ni   5.11630011      -15.1465597      -2.91568995    
 Ni   5.11861992      -7.57382011      -7.28698015    
 Ni   5.11807013      -10.0974798      -11.6592798    
 Ni   5.11630011      -5.04840994      -2.91568995    
 Ni   7.07840014      -15.1439304      -8.74405956    
 Ni   7.07776022      -10.0974798      -1.23000005E-03
 Ni   7.08118010      -12.6211996      -4.37418985    
 Ni   7.07840014      -5.05103016      -8.74405956    
 Ni   7.07798004      -1.30000000E-04   8.29999975E-04
 Ni   7.07785988      -2.52436996      -4.37221003    
 Ni   7.08402014      -10.0974798      -8.74394035    
 Ni   7.07798004      -5.04861021       8.29999975E-04
 Ni   7.08118010      -7.57376003      -4.37418985    
 Ni   9.03851032      -17.6705894      -10.2019196    
 Ni   9.03775024      -12.6206703      -1.45834994    
 Ni   9.04047012      -15.1459999      -5.82916021    
 Ni   9.04349995      -7.57549000      -10.2003899    
 Ni   9.04036045      -2.52436996      -1.45807004    
 Ni   9.04047012      -5.04896021      -5.82916021    
 Ni   9.04349995      -12.6194801      -10.2003899    
 Ni   9.03775024      -7.57428980      -1.45834994    
 Ni   9.05093956      -10.0974798      -5.83209991    
 Ni   10.9982204      -20.1971092      -11.6565704    
 Ni   11.0005198      -15.1458197      -2.91464996    
 Ni   10.9966602      -17.6705894      -7.28899002    
 Ni   11.0032101      -10.0974798      -11.6597404    
 Ni   11.0005198      -5.04913998      -2.91464996    
 Ni   11.0131798      -7.57490015      -7.28856993    
 Ni   10.9982204      -15.1440697      -11.6565704    
 Ni   11.0030603      -10.0974798      -2.92017007    
 Ni   11.0131798      -12.6200600      -7.28856993    
 Ni   12.9588699       4.41000005E-03  -7.90000020E-04
 Ni   12.9640303      -2.52436996      -4.37181997    
 Ni   12.9613104      -5.05454016      -8.74518013    
 Ni   12.9588699      -5.05315018      -7.90000020E-04
 Ni   12.9637403      -7.57060003      -4.36589003    
 Ni   12.9878902      -10.0974798      -8.74779987    
 Ni   12.9602003      -10.0974798      -8.09999998E-04
 Ni   12.9637403      -12.6243696      -4.36589003    
 Ni   12.9613104      -15.1404200      -8.74518013    
 Ni   14.9407396      -2.52436996      -1.46275997    
 Ni   14.9356699      -5.03007984      -5.82723999    
 Ni   14.9375896      -7.56430006      -10.2165098    
 Ni   14.9313898      -7.57277012      -1.45009005    
 Ni   15.0433998      -10.0974798      -5.78904009    
 Ni   14.9375896      -12.6306601      -10.2165098    
 Ni   14.9313898      -12.6221905      -1.45009005    
 Ni   14.9356699      -15.1648798      -5.82723999    
 Ni   14.9326601      -17.6705894      -10.2040997    
 Ni   3.14304996      -6.31084013      -3.64389992    
 Ni   3.14425993      -8.83518982      -8.01601028    
 Ni   3.14304996      -11.3593702      -12.3882198    
 Ni   3.14338994      -11.3596001      -3.64389992    
 Ni   3.14338994      -13.8837500      -8.01587009    
 Ni   3.14508009      -16.4079208      -12.3885698    
 Ni   3.14147997      -16.4084091      -3.64361000    
 Ni   3.14356995      -18.9332104      -8.01552010    
 Ni   3.14356995      -21.4577408      -12.3881302    
 Ni   5.11861992      -8.83543015      -5.10179996    
 Ni   5.11861992      -11.3590899      -9.47290993    
 Ni   5.11603022      -6.30998993     -0.729260027    
 Ni   5.11807013      -13.8837900      -5.10120010    
 Ni   5.11641979      -16.4066296      -9.47227955    
 Ni   5.11641979      -11.3597498     -0.730820000    
 Ni   5.11630011      -3.78708005      -5.10036993    
 Ni   5.11726999      -6.31272984      -9.47235966    
 Ni   5.11630011      -1.26304996     -0.728609979    
 Ni   7.08402014      -11.3590298      -6.55887985    
 Ni   7.07840014      -13.8823605      -10.9291697    
 Ni   7.07840014      -8.83590984      -2.18846011    
 Ni   7.07798004      -16.4076195      -6.55881023    
 Ni   7.07776022      -18.9338398      -10.9302301    
 Ni   7.07798004      -13.8833799      -2.18670011    
 Ni   7.08118010      -6.31285000      -6.55813980    
 Ni   7.08118010      -8.83658028      -10.9293604    
 Ni   7.07785988      -3.78644991      -2.18622994    
 Ni   9.04349995      -13.8813496      -8.01476002    
 Ni   9.03851032      -16.4082298      -12.3883896    
 Ni   9.04349995      -11.3593597      -3.64652991    
 Ni   9.03775024      -18.9341507      -8.01651955    
 Ni   9.03775024      -21.4573402      -12.3868103    
 Ni   9.04036045      -16.4089508      -3.64330006    
 Ni   9.05093956      -8.83730030      -8.01478958    
 Ni   9.04047012      -11.3590202      -12.3884096    
 Ni   9.04047012      -6.31050014      -3.64411998    
 Ni   10.9982204      -16.4047394      -9.47303009    
 Ni   10.9982204      -11.3581495     -0.732079983    
 Ni   11.0032101      -13.8841801      -5.10097980    
 Ni   11.0030603      -6.31549978      -9.47076035    
 Ni   11.0005198      -1.26177001     -0.728500009    
 Ni   11.0005198      -3.78654003      -5.10153008    
 Ni   11.0131798      -11.3599300      -9.47117996    
 Ni   10.9966602      -6.31244993     -0.727840006    
 Ni   11.0131798      -8.83734989      -5.10194016    
 Ni   12.9602003      -18.9334793      -10.9304399    
 Ni   12.9588699      -13.8825102      -2.18196011    
 Ni   12.9588699      -16.4112892      -6.56193018    
 Ni   12.9637403      -8.83096981      -10.9362402    
 Ni   12.9640303      -3.78610992      -2.18642998    
 Ni   12.9637403      -6.30409002      -6.55954981    
 Ni   12.9613104      -13.8815804      -10.9255695    
 Ni   12.9613104      -8.83862972      -2.19093990    
 Ni   12.9878902      -11.3623695      -6.55695009    
 Ni   14.9313898      -21.4509506      -12.3922596    
 Ni   14.9407396      -16.4130096      -3.64095998    
 Ni   14.9313898      -18.9262409      -8.01933956    
 Ni   14.9356699      -11.3667898      -12.4057198    
 Ni   14.9356699      -6.29939985      -3.62873006    
 Ni   15.0433998      -8.80000973      -8.03631973    
 Ni   14.9326601      -16.4101200      -12.3872995    
 Ni   14.9375896      -11.3677197      -3.62878990    
 Ni   14.9375896      -13.9008999      -8.01638985    
 Ni   3.14444995      -7.57347012      -5.82998991    
 Ni   3.14444995      -10.0974798      -10.2017097    
 Ni   3.14374995      -5.04844999      -1.45761001    
 Ni   3.14444995      -12.6215000      -5.82998991    
 Ni   3.14244008      -15.1458101      -10.2018805    
 Ni   3.14244008      -10.0974798      -1.45791996    
 Ni   3.14374995      -17.6705894      -5.82945013    
 Ni   3.14244008      -20.1953793      -10.2018805    
 Ni   3.14374995      -15.1465101      -1.45761001    
 Ni   5.11915016      -10.0974798      -7.28723001    
 Ni   5.11687994      -12.6199398      -11.6589098    
 Ni   5.11687994      -7.57272005      -2.91687989    
 Ni   5.11687994      -15.1447001      -7.28590012    
 Ni   5.11869001      -17.6705894      -11.6595697    
 Ni   5.11687994      -12.6222401      -2.91687989    
 Ni   5.11687994      -5.05027008      -7.28590012    
 Ni   5.11687994      -7.57502985      -11.6589098    
 Ni   5.11534977      -2.52436996      -2.91489005    
 Ni   7.08325005      -12.6192198      -8.74316025    
 Ni   7.07702017      -7.57365990       3.19999992E-04
 Ni   7.08325005      -10.0974798      -4.37537003    
 Ni   7.07702017      -17.6705894      -8.74530983    
 Ni   7.07702017      -12.6212997       3.19999992E-04
 Ni   7.07917023      -15.1461802      -4.37236023    
 Ni   7.08325005      -7.57573986      -8.74316025    
 Ni   7.07917023      -2.52436996       4.99999987E-05
 Ni   7.07917023      -5.04878998      -4.37236023    
 Ni   9.03748989      -15.1446600      -10.2012196    
 Ni   9.03748989      -10.0974798      -1.45924997    
 Ni   9.04724979      -12.6205397      -5.83054018    
 Ni   9.03748989      -20.1965199      -10.2012196    
 Ni   9.03888035      -15.1466703      -1.45770001    
 Ni   9.03888035      -17.6705894      -5.82926989    
 Ni   9.04724979      -10.0974798      -10.2006102    
 Ni   9.03888035      -5.04829979      -1.45770001    
 Ni   9.04724979      -7.57441998      -5.83054018    
 Ni   10.9983501      -17.6705894      -11.6595697    
 Ni   10.9991102      -12.6211300      -2.91574001    
 Ni   10.9991102      -15.1451302      -7.28742981    
 Ni   10.9991102      -7.57348013      -11.6585197    
 Ni   11.0008001      -2.52436996      -2.91489005    
 Ni   10.9991102      -5.04982996      -7.28742981    
 Ni   10.9991102      -12.6214800      -11.6585197    
 Ni   10.9991102      -7.57383013      -2.91574001    
 Ni   11.0251102      -10.0974798      -7.28723001    
 Ni   12.9564505      -12.6172705       2.64000008E-03
 Ni   12.9644699      -15.1491699      -4.37062979    
 Ni   12.9564505      -17.6705894      -8.74995995    
 Ni   12.9644699      -2.52436996      -3.40999989E-03
 Ni   12.9644699      -5.04579020      -4.37062979    
 Ni   12.9998598      -7.59215021      -8.73367977    
 Ni   12.9564505      -7.57769012       2.64000008E-03
 Ni   12.9998598      -10.0974798      -4.39432001    
 Ni   12.9998598      -12.6028099      -8.73367977    
 Ni   14.9345398      -15.1472902      -1.45806003    
 Ni   14.9345398      -17.6705894      -5.82854986    
 Ni   14.9356499      -20.1897106      -10.2051497    
 Ni   14.9345398      -5.04766989      -1.45806003    
 Ni   14.9243498      -7.51393986      -5.79561996    
 Ni   14.9243498      -10.0974798      -10.2704401    
 Ni   14.9356499      -10.0974798      -1.45138001    
 Ni   14.9243498      -12.6810198      -5.79561996    
 Ni   14.9356499      -15.1514797      -10.2051497    
 Ni   3.14338994      -8.83537006      -3.64389992    
 Ni   3.14425993      -11.3597698      -8.01601028    
 Ni   3.14356995      -13.8834496      -12.3881302    
 Ni   3.14304996      -13.8841200      -3.64389992    
 Ni   3.14356995      -16.4079800      -8.01552010    
 Ni   3.14508009      -18.9332695      -12.3885698    
 Ni   3.14147997      -3.78655005      -3.64361000    
 Ni   3.14338994      -6.31121016      -8.01587009    
 Ni   3.14304996      -8.83559036      -12.3882198    
 Ni   5.11861992      -11.3595304      -5.10179996    
 Ni   5.11726999      -13.8822298      -9.47235966    
 Ni   5.11641979      -8.83520985     -0.730820000    
 Ni   5.11630011      -16.4078808      -5.10036993    
 Ni   5.11641979      -18.9345493      -9.47227955    
 Ni   5.11603022      -13.8849697     -0.729260027    
 Ni   5.11807013      -6.31118011      -5.10120010    
 Ni   5.11861992      -8.83586979      -9.47290993    
 Ni   5.11630011      -3.78569007     -0.728609979    
 Ni   7.08118010      -13.8821096      -6.55813980    
 Ni   7.07776022      -16.4073391      -10.9302301    
 Ni   7.07840014      -11.3590498      -2.18846011    
 Ni   7.07798004      -3.78733993      -6.55881023    
 Ni   7.07840014      -6.31260014      -10.9291697    
 Ni   7.07785988      -1.26230001      -2.18622994    
 Ni   7.08402014      -8.83592987      -6.55887985    
 Ni   7.08118010      -11.3583899      -10.9293604    
 Ni   7.07798004      -6.31158018      -2.18670011    
 Ni   9.03775024      -16.4070301      -8.01651955    
 Ni   9.03851032      -18.9329491      -12.3883896    
 Ni   9.04047012      -13.8844700      -3.64411998    
 Ni   9.04349995      -6.31361008      -8.01476002    
 Ni   9.04047012      -8.83594990      -12.3884096    
 Ni   9.04036045      -3.78602004      -3.64330006    
 Ni   9.05093956      -11.3576603      -8.01478958    
 Ni   9.03775024      -13.8838396      -12.3868103    
 Ni   9.04349995      -8.83559990      -3.64652991    
 Ni   10.9982204      -18.9364491      -9.47303009    
 Ni   10.9966602      -13.8825197     -0.727840006    
 Ni   11.0005198      -16.4084206      -5.10153008    
 Ni   11.0131798      -8.83502960      -9.47117996    
 Ni   11.0005198      -3.78696990     -0.728500009    
 Ni   11.0032101      -6.31078005      -5.10097980    
 Ni   11.0030603      -13.8794603      -9.47076035    
 Ni   10.9982204      -8.83681011     -0.732079983    
 Ni   11.0131798      -11.3576097      -5.10194016    
 Ni   12.9613104      -6.31338978      -10.9255695    
 Ni   12.9640303      -1.26262999      -2.18642998    
 Ni   12.9588699      -3.78366995      -6.56193018    
 Ni   12.9637403      -11.3639898      -10.9362402    
 Ni   12.9588699      -6.31244993      -2.18196011    
 Ni   12.9878902      -8.83259010      -6.55695009    
 Ni   12.9602003      -16.4077091      -10.9304399    
 Ni   12.9613104      -11.3563299      -2.19093990    
 Ni   12.9637403      -13.8908796      -6.55954981    
 Ni   14.9356699      -8.82816982      -12.4057198    
 Ni   14.9407396      -3.78195000      -3.64095998    
 Ni   14.9375896      -6.29406023      -8.01638985    
 Ni   14.9313898      -13.8902397      -12.3922596    
 Ni   14.9375896      -8.82723999      -3.62878990    
 Ni   15.0433998      -11.3949499      -8.03631973    
 Ni   14.9326601      -18.9310608      -12.3872995    
 Ni   14.9356699      -13.8955698      -3.62873006    
 Ni   14.9313898      -16.4149399      -8.01933956    
 O    16.0600796      -10.0974798      -7.28723001    
