         264
 Energy:  -1046.9883554000000     
 X   0.00000000       0.00000000       0.00000000    
 X   16.1980000       0.00000000       0.00000000    
 X   0.00000000       16.1980000       0.00000000    
 X   0.00000000       0.00000000       16.1980000    
 X   16.1980000       16.1980000       0.00000000    
 X   16.1980000       0.00000000       16.1980000    
 X   0.00000000       16.1980000       16.1980000    
 X   16.1980000       16.1980000       16.1980000    
 Al   0.00000000       0.00000000       0.00000000    
 Al   0.00000000       2.02474999       2.02474999    
 Al   2.02474999       0.00000000       2.02474999    
 Al   2.02474999       2.02474999       0.00000000    
 Al   0.00000000       0.00000000       4.04949999    
 Al   0.00000000       2.02474999       6.07425022    
 Al   2.02474999       0.00000000       6.07425022    
 Al   2.02474999       2.02474999       4.04949999    
 Al   0.00000000       0.00000000       8.09899998    
 Al   0.00000000       2.02474999       10.1237497    
 Al   2.02474999       0.00000000       10.1237497    
 Al   2.02474999       2.02474999       8.09899998    
 Al   0.00000000       0.00000000       12.1485004    
 Al   0.00000000       2.02474999       14.1732502    
 Al   2.02474999       0.00000000       14.1732502    
 Al   2.02474999       2.02474999       12.1485004    
 Al   0.00000000       4.04949999       0.00000000    
 Al   0.00000000       6.07425022       2.02474999    
 Al   2.02474999       4.04949999       2.02474999    
 Al   2.02474999       6.07425022       0.00000000    
 Al   0.00000000       4.04949999       4.04949999    
 Al   0.00000000       6.07425022       6.07425022    
 Al   2.02474999       4.04949999       6.07425022    
 Al   2.02474999       6.07425022       4.04949999    
 Al   0.00000000       4.04949999       8.09899998    
 Al   0.00000000       6.07425022       10.1237497    
 Al   2.02474999       4.04949999       10.1237497    
 Al   2.02474999       6.07425022       8.09899998    
 Al   0.00000000       4.04949999       12.1485004    
 Al   0.00000000       6.07425022       14.1732502    
 Al   2.02474999       4.04949999       14.1732502    
 Al   2.02474999       6.07425022       12.1485004    
 Al   0.00000000       8.09899998       0.00000000    
 Al   0.00000000       10.1237497       2.02474999    
 Al   2.02474999       8.09899998       2.02474999    
 Al   2.02474999       10.1237497       0.00000000    
 Al   0.00000000       8.09899998       4.04949999    
 Al   0.00000000       10.1237497       6.07425022    
 Al   2.02474999       8.09899998       6.07425022    
 Al   2.02474999       10.1237497       4.04949999    
 Al   0.00000000       8.09899998       8.09899998    
 Al   0.00000000       10.1237497       10.1237497    
 Al   2.02474999       8.09899998       10.1237497    
 Al   2.02474999       10.1237497       8.09899998    
 Al   0.00000000       8.09899998       12.1485004    
 Al   0.00000000       10.1237497       14.1732502    
 Al   2.02474999       8.09899998       14.1732502    
 Al   2.02474999       10.1237497       12.1485004    
 Al   0.00000000       12.1485004       0.00000000    
 Al   0.00000000       14.1732502       2.02474999    
 Al   2.02474999       12.1485004       2.02474999    
 Al   2.02474999       14.1732502       0.00000000    
 Al   0.00000000       12.1485004       4.04949999    
 Al   0.00000000       14.1732502       6.07425022    
 Al   2.02474999       12.1485004       6.07425022    
 Al   2.02474999       14.1732502       4.04949999    
 Al   0.00000000       12.1485004       8.09899998    
 Al   0.00000000       14.1732502       10.1237497    
 Al   2.02474999       12.1485004       10.1237497    
 Al   2.02474999       14.1732502       8.09899998    
 Al   0.00000000       12.1485004       12.1485004    
 Al   0.00000000       14.1732502       14.1732502    
 Al   2.02474999       12.1485004       14.1732502    
 Al   2.02474999       14.1732502       12.1485004    
 Al   4.04949999       0.00000000       0.00000000    
 Al   4.04949999       2.02474999       2.02474999    
 Al   6.07425022       0.00000000       2.02474999    
 Al   6.07425022       2.02474999       0.00000000    
 Al   4.04949999       0.00000000       4.04949999    
 Al   4.04949999       2.02474999       6.07425022    
 Al   6.07425022       0.00000000       6.07425022    
 Al   6.07425022       2.02474999       4.04949999    
 Al   4.04949999       0.00000000       8.09899998    
 Al   4.04949999       2.02474999       10.1237497    
 Al   6.07425022       0.00000000       10.1237497    
 Al   6.07425022       2.02474999       8.09899998    
 Al   4.04949999       0.00000000       12.1485004    
 Al   4.04949999       2.02474999       14.1732502    
 Al   6.07425022       0.00000000       14.1732502    
 Al   6.07425022       2.02474999       12.1485004    
 Al   4.04949999       4.04949999       0.00000000    
 Al   4.04949999       6.07425022       2.02474999    
 Al   6.07425022       4.04949999       2.02474999    
 Al   6.07425022       6.07425022       0.00000000    
 Al   4.04949999       4.04949999       4.04949999    
 Al   4.04949999       6.07425022       6.07425022    
 Al   6.07425022       4.04949999       6.07425022    
 Al   6.07425022       6.07425022       4.04949999    
 Al   4.04949999       4.04949999       8.09899998    
 Al   4.04949999       6.07425022       10.1237497    
 Al   6.07425022       4.04949999       10.1237497    
 Al   6.07425022       6.07425022       8.09899998    
 Al   4.04949999       4.04949999       12.1485004    
 Al   4.04949999       6.07425022       14.1732502    
 Al   6.07425022       4.04949999       14.1732502    
 Al   6.07425022       6.07425022       12.1485004    
 Al   4.04949999       8.09899998       0.00000000    
 Al   4.04949999       10.1237497       2.02474999    
 Al   6.07425022       8.09899998       2.02474999    
 Al   6.07425022       10.1237497       0.00000000    
 Al   4.04949999       8.09899998       4.04949999    
 Al   4.04949999       10.1237497       6.07425022    
 Al   6.07425022       8.09899998       6.07425022    
 Al   6.07425022       10.1237497       4.04949999    
 Al   4.04949999       8.09899998       8.09899998    
 Al   4.04949999       10.1237497       10.1237497    
 Al   6.07425022       8.09899998       10.1237497    
 Al   6.07425022       10.1237497       8.09899998    
 Al   4.04949999       8.09899998       12.1485004    
 Al   4.04949999       10.1237497       14.1732502    
 Al   6.07425022       8.09899998       14.1732502    
 Al   6.07425022       10.1237497       12.1485004    
 Al   4.04949999       12.1485004       0.00000000    
 Al   4.04949999       14.1732502       2.02474999    
 Al   6.07425022       12.1485004       2.02474999    
 Al   6.07425022       14.1732502       0.00000000    
 Al   4.04949999       12.1485004       4.04949999    
 Al   4.04949999       14.1732502       6.07425022    
 Al   6.07425022       12.1485004       6.07425022    
 Al   6.07425022       14.1732502       4.04949999    
 Al   4.04949999       12.1485004       8.09899998    
 Al   4.04949999       14.1732502       10.1237497    
 Al   6.07425022       12.1485004       10.1237497    
 Al   6.07425022       14.1732502       8.09899998    
 Al   4.04949999       12.1485004       12.1485004    
 Al   4.04949999       14.1732502       14.1732502    
 Al   6.07425022       12.1485004       14.1732502    
 Al   6.07425022       14.1732502       12.1485004    
 Al   8.09899998       0.00000000       0.00000000    
 Al   8.09899998       2.02474999       2.02474999    
 Al   10.1237497       0.00000000       2.02474999    
 Al   10.1237497       2.02474999       0.00000000    
 Al   8.09899998       0.00000000       4.04949999    
 Al   8.09899998       2.02474999       6.07425022    
 Al   10.1237497       0.00000000       6.07425022    
 Al   10.1237497       2.02474999       4.04949999    
 Al   8.09899998       0.00000000       8.09899998    
 Al   8.09899998       2.02474999       10.1237497    
 Al   10.1237497       0.00000000       10.1237497    
 Al   10.1237497       2.02474999       8.09899998    
 Al   8.09899998       0.00000000       12.1485004    
 Al   8.09899998       2.02474999       14.1732502    
 Al   10.1237497       0.00000000       14.1732502    
 Al   10.1237497       2.02474999       12.1485004    
 Al   8.09899998       4.04949999       0.00000000    
 Al   8.09899998       6.07425022       2.02474999    
 Al   10.1237497       4.04949999       2.02474999    
 Al   10.1237497       6.07425022       0.00000000    
 Al   8.09899998       4.04949999       4.04949999    
 Al   8.09899998       6.07425022       6.07425022    
 Al   10.1237497       4.04949999       6.07425022    
 Al   10.1237497       6.07425022       4.04949999    
 Al   8.09899998       4.04949999       8.09899998    
 Al   8.09899998       6.07425022       10.1237497    
 Al   10.1237497       4.04949999       10.1237497    
 Al   10.1237497       6.07425022       8.09899998    
 Al   8.09899998       4.04949999       12.1485004    
 Al   8.09899998       6.07425022       14.1732502    
 Al   10.1237497       4.04949999       14.1732502    
 Al   10.1237497       6.07425022       12.1485004    
 Al   8.09899998       8.09899998       0.00000000    
 Al   8.09899998       10.1237497       2.02474999    
 Al   10.1237497       8.09899998       2.02474999    
 Al   10.1237497       10.1237497       0.00000000    
 Al   8.09899998       8.09899998       4.04949999    
 Al   8.09899998       10.1237497       6.07425022    
 Al   10.1237497       8.09899998       6.07425022    
 Al   10.1237497       10.1237497       4.04949999    
 Al   8.09899998       8.09899998       8.09899998    
 Al   8.09899998       10.1237497       10.1237497    
 Al   10.1237497       8.09899998       10.1237497    
 Al   10.1237497       10.1237497       8.09899998    
 Al   8.09899998       8.09899998       12.1485004    
 Al   8.09899998       10.1237497       14.1732502    
 Al   10.1237497       8.09899998       14.1732502    
 Al   10.1237497       10.1237497       12.1485004    
 Al   8.09899998       12.1485004       0.00000000    
 Al   8.09899998       14.1732502       2.02474999    
 Al   10.1237497       12.1485004       2.02474999    
 Al   10.1237497       14.1732502       0.00000000    
 Al   8.09899998       12.1485004       4.04949999    
 Al   8.09899998       14.1732502       6.07425022    
 Al   10.1237497       12.1485004       6.07425022    
 Al   10.1237497       14.1732502       4.04949999    
 Al   8.09899998       12.1485004       8.09899998    
 Al   8.09899998       14.1732502       10.1237497    
 Al   10.1237497       12.1485004       10.1237497    
 Al   10.1237497       14.1732502       8.09899998    
 Al   8.09899998       12.1485004       12.1485004    
 Al   8.09899998       14.1732502       14.1732502    
 Al   10.1237497       12.1485004       14.1732502    
 Al   10.1237497       14.1732502       12.1485004    
 Al   12.1485004       0.00000000       0.00000000    
 Al   12.1485004       2.02474999       2.02474999    
 Al   14.1732502       0.00000000       2.02474999    
 Al   14.1732502       2.02474999       0.00000000    
 Al   12.1485004       0.00000000       4.04949999    
 Al   12.1485004       2.02474999       6.07425022    
 Al   14.1732502       0.00000000       6.07425022    
 Al   14.1732502       2.02474999       4.04949999    
 Al   12.1485004       0.00000000       8.09899998    
 Al   12.1485004       2.02474999       10.1237497    
 Al   14.1732502       0.00000000       10.1237497    
 Al   14.1732502       2.02474999       8.09899998    
 Al   12.1485004       0.00000000       12.1485004    
 Al   12.1485004       2.02474999       14.1732502    
 Al   14.1732502       0.00000000       14.1732502    
 Al   14.1732502       2.02474999       12.1485004    
 Al   12.1485004       4.04949999       0.00000000    
 Al   12.1485004       6.07425022       2.02474999    
 Al   14.1732502       4.04949999       2.02474999    
 Al   14.1732502       6.07425022       0.00000000    
 Al   12.1485004       4.04949999       4.04949999    
 Al   12.1485004       6.07425022       6.07425022    
 Al   14.1732502       4.04949999       6.07425022    
 Al   14.1732502       6.07425022       4.04949999    
 Al   12.1485004       4.04949999       8.09899998    
 Al   12.1485004       6.07425022       10.1237497    
 Al   14.1732502       4.04949999       10.1237497    
 Al   14.1732502       6.07425022       8.09899998    
 Al   12.1485004       4.04949999       12.1485004    
 Al   12.1485004       6.07425022       14.1732502    
 Al   14.1732502       4.04949999       14.1732502    
 Al   14.1732502       6.07425022       12.1485004    
 Al   12.1485004       8.09899998       0.00000000    
 Al   12.1485004       10.1237497       2.02474999    
 Al   14.1732502       8.09899998       2.02474999    
 Al   14.1732502       10.1237497       0.00000000    
 Al   12.1485004       8.09899998       4.04949999    
 Al   12.1485004       10.1237497       6.07425022    
 Al   14.1732502       8.09899998       6.07425022    
 Al   14.1732502       10.1237497       4.04949999    
 Al   12.1485004       8.09899998       8.09899998    
 Al   12.1485004       10.1237497       10.1237497    
 Al   14.1732502       8.09899998       10.1237497    
 Al   14.1732502       10.1237497       8.09899998    
 Al   12.1485004       8.09899998       12.1485004    
 Al   12.1485004       10.1237497       14.1732502    
 Al   14.1732502       8.09899998       14.1732502    
 Al   14.1732502       10.1237497       12.1485004    
 Al   12.1485004       12.1485004       0.00000000    
 Al   12.1485004       14.1732502       2.02474999    
 Al   14.1732502       12.1485004       2.02474999    
 Al   14.1732502       14.1732502       0.00000000    
 Al   12.1485004       12.1485004       4.04949999    
 Al   12.1485004       14.1732502       6.07425022    
 Al   14.1732502       12.1485004       6.07425022    
 Al   14.1732502       14.1732502       4.04949999    
 Al   12.1485004       12.1485004       8.09899998    
 Al   12.1485004       14.1732502       10.1237497    
 Al   14.1732502       12.1485004       10.1237497    
 Al   14.1732502       14.1732502       8.09899998    
 Al   12.1485004       12.1485004       12.1485004    
 Al   12.1485004       14.1732502       14.1732502    
 Al   14.1732502       12.1485004       14.1732502    
 Al   14.1732502       14.1732502       12.1485004    
