         259
 Energy:  -1216.7957752999998     
 X   0.00000000       0.00000000       0.00000000    
 X   14.5000000       0.00000000       0.00000000    
 X   0.00000000       14.5000000       0.00000000    
 X   0.00000000       0.00000000       14.5000000    
 X   14.5000000       14.5000000       0.00000000    
 X   14.5000000       0.00000000       14.5000000    
 X   0.00000000       14.5000000       14.5000000    
 X   14.5000000       14.5000000       14.5000000    
 Ni -0.136030003     -0.136030003       0.00000000    
 Ni  -2.70600002E-02  -2.70600002E-02   2.91403008    
 Ni  -6.47999998E-03  -6.47999998E-03   5.79956007    
 Ni  -6.47999998E-03  -6.47999998E-03   8.70044041    
 Ni  -2.70600002E-02  -2.70600002E-02   11.5859699    
 Ni -0.136030003       3.03603005       0.00000000    
 Ni  -2.70600002E-02   2.92705989       2.91403008    
 Ni  -6.47999998E-03   2.90648007       5.79956007    
 Ni  -6.47999998E-03   2.90648007       8.70044041    
 Ni  -2.70600002E-02   2.92705989       11.5859699    
 Ni  -1.53000001E-03   5.80393982       0.00000000    
 Ni  -4.98999981E-03   5.81206989       2.91219997    
 Ni  -9.29999980E-04   5.80346012       5.80407000    
 Ni  -9.29999980E-04   5.80346012       8.69592953    
 Ni  -4.98999981E-03   5.81206989       11.5878000    
 Ni  -2.30000005E-04   8.69999981       0.00000000    
 Ni  -2.48000002E-03   8.69999981       2.90177989    
 Ni   4.60000010E-04   8.69999981       5.80176020    
 Ni   4.60000010E-04   8.69999981       8.69824028    
 Ni  -2.48000002E-03   8.69999981       11.5982199    
 Ni  -1.53000001E-03   11.5960598       0.00000000    
 Ni  -4.98999981E-03   11.5879297       2.91219997    
 Ni  -9.29999980E-04   11.5965405       5.80407000    
 Ni  -9.29999980E-04   11.5965405       8.69592953    
 Ni  -4.98999981E-03   11.5879297       11.5878000    
 Ni   3.03603005     -0.136030003       0.00000000    
 Ni   2.92705989      -2.70600002E-02   2.91403008    
 Ni   2.90648007      -6.47999998E-03   5.79956007    
 Ni   2.90648007      -6.47999998E-03   8.70044041    
 Ni   2.92705989      -2.70600002E-02   11.5859699    
 Ni   3.03603005       3.03603005       0.00000000    
 Ni   2.92705989       2.92705989       2.91403008    
 Ni   2.90648007       2.90648007       5.79956007    
 Ni   2.90648007       2.90648007       8.70044041    
 Ni   2.92705989       2.92705989       11.5859699    
 Ni   2.90153003       5.80393982       0.00000000    
 Ni   2.90498996       5.81206989       2.91219997    
 Ni   2.90092993       5.80346012       5.80407000    
 Ni   2.90092993       5.80346012       8.69592953    
 Ni   2.90498996       5.81206989       11.5878000    
 Ni   2.90022993       8.69999981       0.00000000    
 Ni   2.90247989       8.69999981       2.90177989    
 Ni   2.89953995       8.69999981       5.80176020    
 Ni   2.89953995       8.69999981       8.69824028    
 Ni   2.90247989       8.69999981       11.5982199    
 Ni   2.90153003       11.5960598       0.00000000    
 Ni   2.90498996       11.5879297       2.91219997    
 Ni   2.90092993       11.5965405       5.80407000    
 Ni   2.90092993       11.5965405       8.69592953    
 Ni   2.90498996       11.5879297       11.5878000    
 Ni   5.80393982      -1.53000001E-03   0.00000000    
 Ni   5.81206989      -4.98999981E-03   2.91219997    
 Ni   5.80346012      -9.29999980E-04   5.80407000    
 Ni   5.80346012      -9.29999980E-04   8.69592953    
 Ni   5.81206989      -4.98999981E-03   11.5878000    
 Ni   5.80393982       2.90153003       0.00000000    
 Ni   5.81206989       2.90498996       2.91219997    
 Ni   5.80346012       2.90092993       5.80407000    
 Ni   5.80346012       2.90092993       8.69592953    
 Ni   5.81206989       2.90498996       11.5878000    
 Ni   5.81603003       5.81603003       0.00000000    
 Ni   5.81155014       5.81155014       2.90602994    
 Ni   5.80397987       5.80397987       5.80190992    
 Ni   5.80397987       5.80397987       8.69808960    
 Ni   5.81155014       5.81155014       11.5939703    
 Ni   5.80111980       8.69999981       0.00000000    
 Ni   5.80251980       8.69999981       2.90161991    
 Ni   5.80070019       8.69999981       5.80312014    
 Ni   5.80070019       8.69999981       8.69688034    
 Ni   5.80251980       8.69999981       11.5983801    
 Ni   5.81603003       11.5839701       0.00000000    
 Ni   5.81155014       11.5884504       2.90602994    
 Ni   5.80397987       11.5960197       5.80190992    
 Ni   5.80397987       11.5960197       8.69808960    
 Ni   5.81155014       11.5884504       11.5939703    
 Ni   8.69999981      -2.30000005E-04   0.00000000    
 Ni   8.69999981      -2.48000002E-03   2.90177989    
 Ni   8.69999981       4.60000010E-04   5.80176020    
 Ni   8.69999981       4.60000010E-04   8.69824028    
 Ni   8.69999981      -2.48000002E-03   11.5982199    
 Ni   8.69999981       2.90022993       0.00000000    
 Ni   8.69999981       2.90247989       2.90177989    
 Ni   8.69999981       2.89953995       5.80176020    
 Ni   8.69999981       2.89953995       8.69824028    
 Ni   8.69999981       2.90247989       11.5982199    
 Ni   8.69999981       5.80111980       0.00000000    
 Ni   8.69999981       5.80251980       2.90161991    
 Ni   8.69999981       5.80070019       5.80312014    
 Ni   8.69999981       5.80070019       8.69688034    
 Ni   8.69999981       5.80251980       11.5983801    
 Ni   8.69999981       8.69999981       0.00000000    
 Ni   8.69999981       8.69999981       2.90226007    
 Ni   8.69999981       8.69999981       5.80104017    
 Ni   8.69999981       8.69999981       8.69896030    
 Ni   8.69999981       8.69999981       11.5977402    
 Ni   8.69999981       11.5988798       0.00000000    
 Ni   8.69999981       11.5974798       2.90161991    
 Ni   8.69999981       11.5993004       5.80312014    
 Ni   8.69999981       11.5993004       8.69688034    
 Ni   8.69999981       11.5974798       11.5983801    
 Ni   11.5960598      -1.53000001E-03   0.00000000    
 Ni   11.5879297      -4.98999981E-03   2.91219997    
 Ni   11.5965405      -9.29999980E-04   5.80407000    
 Ni   11.5965405      -9.29999980E-04   8.69592953    
 Ni   11.5879297      -4.98999981E-03   11.5878000    
 Ni   11.5960598       2.90153003       0.00000000    
 Ni   11.5879297       2.90498996       2.91219997    
 Ni   11.5965405       2.90092993       5.80407000    
 Ni   11.5965405       2.90092993       8.69592953    
 Ni   11.5879297       2.90498996       11.5878000    
 Ni   11.5839701       5.81603003       0.00000000    
 Ni   11.5884504       5.81155014       2.90602994    
 Ni   11.5960197       5.80397987       5.80190992    
 Ni   11.5960197       5.80397987       8.69808960    
 Ni   11.5884504       5.81155014       11.5939703    
 Ni   11.5988798       8.69999981       0.00000000    
 Ni   11.5974798       8.69999981       2.90161991    
 Ni   11.5993004       8.69999981       5.80312014    
 Ni   11.5993004       8.69999981       8.69688034    
 Ni   11.5974798       8.69999981       11.5983801    
 Ni   11.5839701       11.5839701       0.00000000    
 Ni   11.5884504       11.5884504       2.90602994    
 Ni   11.5960197       11.5960197       5.80190992    
 Ni   11.5960197       11.5960197       8.69808960    
 Ni   11.5884504       11.5884504       11.5939703    
 Al   1.45000005       1.45000005       1.74426997    
 Al   1.45000005       1.45000005       4.41322994    
 Al   1.45000005       1.45000005       7.25000000    
 Al   1.45000005       1.45000005       10.0867701    
 Al   1.45000005       1.45000005       12.7557297    
 Al   1.45000005       4.37642002       1.46521997    
 Al   1.45000005       4.35731983       4.35640001    
 Al   1.45000005       4.35117006       7.25000000    
 Al   1.45000005       4.35731983       10.1436005    
 Al   1.45000005       4.37642002       13.0347795    
 Al   1.45000005       7.25325012       1.45122004    
 Al   1.45000005       7.25437021       4.35205984    
 Al   1.45000005       7.25153017       7.25000000    
 Al   1.45000005       7.25437021       10.1479397    
 Al   1.45000005       7.25325012       13.0487804    
 Al   1.45000005       10.1467505       1.45122004    
 Al   1.45000005       10.1456299       4.35205984    
 Al   1.45000005       10.1484699       7.25000000    
 Al   1.45000005       10.1456299       10.1479397    
 Al   1.45000005       10.1467505       13.0487804    
 Al   1.45000005       13.0235796       1.46521997    
 Al   1.45000005       13.0426798       4.35640001    
 Al   1.45000005       13.0488300       7.25000000    
 Al   1.45000005       13.0426798       10.1436005    
 Al   1.45000005       13.0235796       13.0347795    
 Al   4.37642002       1.45000005       1.46521997    
 Al   4.35731983       1.45000005       4.35640001    
 Al   4.35117006       1.45000005       7.25000000    
 Al   4.35731983       1.45000005       10.1436005    
 Al   4.37642002       1.45000005       13.0347795    
 Al   4.37984991       4.37984991       1.46529996    
 Al   4.36284018       4.36284018       4.36083984    
 Al   4.35449982       4.35449982       7.25000000    
 Al   4.36284018       4.36284018       10.1391602    
 Al   4.37984991       4.37984991       13.0347004    
 Al   4.35179996       7.25387001       1.45027006    
 Al   4.35368013       7.25474024       4.35483980    
 Al   4.35168982       7.25228024       7.25000000    
 Al   4.35368013       7.25474024       10.1451597    
 Al   4.35179996       7.25387001       13.0497303    
 Al   4.35179996       10.1461296       1.45027006    
 Al   4.35368013       10.1452599       4.35483980    
 Al   4.35168982       10.1477203       7.25000000    
 Al   4.35368013       10.1452599       10.1451597    
 Al   4.35179996       10.1461296       13.0497303    
 Al   4.37984991       13.0201502       1.46529996    
 Al   4.36284018       13.0371599       4.36083984    
 Al   4.35449982       13.0454998       7.25000000    
 Al   4.36284018       13.0371599       10.1391602    
 Al   4.37984991       13.0201502       13.0347004    
 Al   7.25325012       1.45000005       1.45122004    
 Al   7.25437021       1.45000005       4.35205984    
 Al   7.25153017       1.45000005       7.25000000    
 Al   7.25437021       1.45000005       10.1479397    
 Al   7.25325012       1.45000005       13.0487804    
 Al   7.25387001       4.35179996       1.45027006    
 Al   7.25474024       4.35368013       4.35483980    
 Al   7.25228024       4.35168982       7.25000000    
 Al   7.25474024       4.35368013       10.1451597    
 Al   7.25387001       4.35179996       13.0497303    
 Al   7.25467014       7.25467014       1.45085001    
 Al   7.25359011       7.25359011       4.35455990    
 Al   7.25170994       7.25170994       7.25000000    
 Al   7.25359011       7.25359011       10.1454401    
 Al   7.25467014       7.25467014       13.0491505    
 Al   7.25467014       10.1453304       1.45085001    
 Al   7.25359011       10.1464100       4.35455990    
 Al   7.25170994       10.1482897       7.25000000    
 Al   7.25359011       10.1464100       10.1454401    
 Al   7.25467014       10.1453304       13.0491505    
 Al   7.25387001       13.0481997       1.45027006    
 Al   7.25474024       13.0463200       4.35483980    
 Al   7.25228024       13.0483103       7.25000000    
 Al   7.25474024       13.0463200       10.1451597    
 Al   7.25387001       13.0481997       13.0497303    
 Al   10.1467505       1.45000005       1.45122004    
 Al   10.1456299       1.45000005       4.35205984    
 Al   10.1484699       1.45000005       7.25000000    
 Al   10.1456299       1.45000005       10.1479397    
 Al   10.1467505       1.45000005       13.0487804    
 Al   10.1461296       4.35179996       1.45027006    
 Al   10.1452599       4.35368013       4.35483980    
 Al   10.1477203       4.35168982       7.25000000    
 Al   10.1452599       4.35368013       10.1451597    
 Al   10.1461296       4.35179996       13.0497303    
 Al   10.1453304       7.25467014       1.45085001    
 Al   10.1464100       7.25359011       4.35455990    
 Al   10.1482897       7.25170994       7.25000000    
 Al   10.1464100       7.25359011       10.1454401    
 Al   10.1453304       7.25467014       13.0491505    
 Al   10.1453304       10.1453304       1.45085001    
 Al   10.1464100       10.1464100       4.35455990    
 Al   10.1482897       10.1482897       7.25000000    
 Al   10.1464100       10.1464100       10.1454401    
 Al   10.1453304       10.1453304       13.0491505    
 Al   10.1461296       13.0481997       1.45027006    
 Al   10.1452599       13.0463200       4.35483980    
 Al   10.1477203       13.0483103       7.25000000    
 Al   10.1452599       13.0463200       10.1451597    
 Al   10.1461296       13.0481997       13.0497303    
 Al   13.0235796       1.45000005       1.46521997    
 Al   13.0426798       1.45000005       4.35640001    
 Al   13.0488300       1.45000005       7.25000000    
 Al   13.0426798       1.45000005       10.1436005    
 Al   13.0235796       1.45000005       13.0347795    
 Al   13.0201502       4.37984991       1.46529996    
 Al   13.0371599       4.36284018       4.36083984    
 Al   13.0454998       4.35449982       7.25000000    
 Al   13.0371599       4.36284018       10.1391602    
 Al   13.0201502       4.37984991       13.0347004    
 Al   13.0481997       7.25387001       1.45027006    
 Al   13.0463200       7.25474024       4.35483980    
 Al   13.0483103       7.25228024       7.25000000    
 Al   13.0463200       7.25474024       10.1451597    
 Al   13.0481997       7.25387001       13.0497303    
 Al   13.0481997       10.1461296       1.45027006    
 Al   13.0463200       10.1452599       4.35483980    
 Al   13.0483103       10.1477203       7.25000000    
 Al   13.0463200       10.1452599       10.1451597    
 Al   13.0481997       10.1461296       13.0497303    
 Al   13.0201502       13.0201502       1.46529996    
 Al   13.0371599       13.0371599       4.36083984    
 Al   13.0454998       13.0454998       7.25000000    
 Al   13.0371599       13.0371599       10.1391602    
 Al   13.0201502       13.0201502       13.0347004    
 O    1.45000005       1.45000005       0.00000000    
