         265
 Energy:  -1054.2012531000000     
 X   0.00000000       0.00000000       0.00000000    
 X   16.1980000       0.00000000       0.00000000    
 X   0.00000000       16.1980000       0.00000000    
 X   0.00000000       0.00000000       16.1980000    
 X   16.1980000       16.1980000       0.00000000    
 X   16.1980000       0.00000000       16.1980000    
 X   0.00000000       16.1980000       16.1980000    
 X   16.1980000       16.1980000       16.1980000    
 Al -0.358619988       0.00000000      -0.00000000    
 Al  -1.81799997E-02   2.05430007       2.05430007    
 Al   2.03044009       0.00000000       2.03644991    
 Al   2.03044009       2.03644991      -0.00000000    
 Al   6.41999999E-03   0.00000000       4.04254007    
 Al   3.50000011E-03   2.02107000       6.07284021    
 Al   2.02148008       0.00000000       6.06322002    
 Al   2.02891994       2.02589011       4.05579996    
 Al   7.43000023E-03   0.00000000       8.09899998    
 Al   3.50000011E-03   2.02107000       10.1251602    
 Al   2.02148008       0.00000000       10.1347799    
 Al   2.02326012       2.01934004       8.09899998    
 Al   6.41999999E-03   0.00000000       12.1554604    
 Al  -1.81799997E-02   2.05430007       14.1436996    
 Al   2.03044009       0.00000000       14.1615496    
 Al   2.02891994       2.02589011       12.1422005    
 Al   6.41999999E-03   4.04254007      -0.00000000    
 Al   3.50000011E-03   6.07284021       2.02107000    
 Al   2.02891994       4.05579996       2.02589011    
 Al   2.02148008       6.06322002      -0.00000000    
 Al   7.65000004E-03   4.04946995       4.04946995    
 Al   1.84000004E-03   6.07503986       6.07503986    
 Al   2.02279997       4.04482985       6.07207012    
 Al   2.02279997       6.07207012       4.04482985    
 Al   7.80999986E-03   4.04600000       8.09899998    
 Al   1.84000004E-03   6.07503986       10.1229601    
 Al   2.02279997       4.04482985       10.1259298    
 Al   2.02787995       6.07697010       8.09899998    
 Al   7.65000004E-03   4.04946995       12.1485300    
 Al   3.50000011E-03   6.07284021       14.1769304    
 Al   2.02891994       4.05579996       14.1721096    
 Al   2.02279997       6.07207012       12.1531696    
 Al   7.43000023E-03   8.09899998      -0.00000000    
 Al   3.50000011E-03   10.1251602       2.02107000    
 Al   2.02326012       8.09899998       2.01934004    
 Al   2.02148008       10.1347799      -0.00000000    
 Al   7.80999986E-03   8.09899998       4.04600000    
 Al   1.84000004E-03   10.1229601       6.07503986    
 Al   2.02787995       8.09899998       6.07697010    
 Al   2.02279997       10.1259298       4.04482985    
 Al  -1.10000001E-04   8.09899998       8.09899998    
 Al   1.84000004E-03   10.1229601       10.1229601    
 Al   2.02787995       8.09899998       10.1210299    
 Al   2.02787995       10.1210299       8.09899998    
 Al   7.80999986E-03   8.09899998       12.1520004    
 Al   3.50000011E-03   10.1251602       14.1769304    
 Al   2.02326012       8.09899998       14.1786604    
 Al   2.02279997       10.1259298       12.1531696    
 Al   6.41999999E-03   12.1554604      -0.00000000    
 Al  -1.81799997E-02   14.1436996       2.05430007    
 Al   2.02891994       12.1422005       2.02589011    
 Al   2.03044009       14.1615496      -0.00000000    
 Al   7.65000004E-03   12.1485300       4.04946995    
 Al   3.50000011E-03   14.1769304       6.07284021    
 Al   2.02279997       12.1531696       6.07207012    
 Al   2.02891994       14.1721096       4.05579996    
 Al   7.80999986E-03   12.1520004       8.09899998    
 Al   3.50000011E-03   14.1769304       10.1251602    
 Al   2.02279997       12.1531696       10.1259298    
 Al   2.02326012       14.1786604       8.09899998    
 Al   7.65000004E-03   12.1485300       12.1485300    
 Al  -1.81799997E-02   14.1436996       14.1436996    
 Al   2.02891994       12.1422005       14.1721096    
 Al   2.02891994       14.1721096       12.1422005    
 Al   4.26068020       0.00000000      -0.00000000    
 Al   4.02494001       1.98868001       1.98868001    
 Al   6.11936998       0.00000000       2.04696012    
 Al   6.11936998       2.04696012      -0.00000000    
 Al   4.05390978       0.00000000       4.05516005    
 Al   4.04513979       2.02111006       6.07666016    
 Al   6.06818008       0.00000000       6.07136011    
 Al   6.06844997       2.02732992       4.04258013    
 Al   4.04419994       0.00000000       8.09899998    
 Al   4.04513979       2.02111006       10.1213398    
 Al   6.06818008       0.00000000       10.1266403    
 Al   6.06592989       2.02449989       8.09899998    
 Al   4.05390978       0.00000000       12.1428404    
 Al   4.02494001       1.98868001       14.2093201    
 Al   6.11936998       0.00000000       14.1510401    
 Al   6.06844997       2.02732992       12.1554203    
 Al   4.05390978       4.05516005      -0.00000000    
 Al   4.04513979       6.07666016       2.02111006    
 Al   6.06844997       4.04258013       2.02732992    
 Al   6.06818008       6.07136011      -0.00000000    
 Al   4.04721022       4.03937006       4.03937006    
 Al   4.04582024       6.07088995       6.07088995    
 Al   6.06777000       4.04956007       6.07546997    
 Al   6.06777000       6.07546997       4.04956007    
 Al   4.04348993       4.04468012       8.09899998    
 Al   4.04582024       6.07088995       10.1271095    
 Al   6.06777000       4.04956007       10.1225300    
 Al   6.06535006       6.07225990       8.09899998    
 Al   4.04721022       4.03937006       12.1586304    
 Al   4.04513979       6.07666016       14.1768904    
 Al   6.06844997       4.04258013       14.1706696    
 Al   6.06777000       6.07546997       12.1484404    
 Al   4.04419994       8.09899998      -0.00000000    
 Al   4.04513979       10.1213398       2.02111006    
 Al   6.06592989       8.09899998       2.02449989    
 Al   6.06818008       10.1266403      -0.00000000    
 Al   4.04348993       8.09899998       4.04468012    
 Al   4.04582024       10.1271095       6.07088995    
 Al   6.06535006       8.09899998       6.07225990    
 Al   6.06777000       10.1225300       4.04956007    
 Al   4.05443001       8.09899998       8.09899998    
 Al   4.04582024       10.1271095       10.1271095    
 Al   6.06535006       8.09899998       10.1257401    
 Al   6.06535006       10.1257401       8.09899998    
 Al   4.04348993       8.09899998       12.1533203    
 Al   4.04513979       10.1213398       14.1768904    
 Al   6.06592989       8.09899998       14.1735001    
 Al   6.06777000       10.1225300       12.1484404    
 Al   4.05390978       12.1428404      -0.00000000    
 Al   4.02494001       14.2093201       1.98868001    
 Al   6.06844997       12.1554203       2.02732992    
 Al   6.11936998       14.1510401      -0.00000000    
 Al   4.04721022       12.1586304       4.03937006    
 Al   4.04513979       14.1768904       6.07666016    
 Al   6.06777000       12.1484404       6.07546997    
 Al   6.06844997       14.1706696       4.04258013    
 Al   4.04348993       12.1533203       8.09899998    
 Al   4.04513979       14.1768904       10.1213398    
 Al   6.06777000       12.1484404       10.1225300    
 Al   6.06592989       14.1735001       8.09899998    
 Al   4.04721022       12.1586304       12.1586304    
 Al   4.02494001       14.2093201       14.2093201    
 Al   6.06844997       12.1554203       14.1706696    
 Al   6.06844997       14.1706696       12.1554203    
 Al   8.11878014       0.00000000      -0.00000000    
 Al   8.11120033       2.02719998       2.02719998    
 Al   10.1338396       0.00000000       2.02520990    
 Al   10.1338396       2.02520990      -0.00000000    
 Al   8.10499001       0.00000000       4.05756998    
 Al   8.09051991       2.02665997       6.07155991    
 Al   10.1213703       0.00000000       6.08290005    
 Al   10.1201000       2.02802992       4.05228996    
 Al   8.09329033       0.00000000       8.09899998    
 Al   8.09051991       2.02665997       10.1264400    
 Al   10.1213703       0.00000000       10.1150999    
 Al   10.1220598       2.02785993       8.09899998    
 Al   8.10499001       0.00000000       12.1404305    
 Al   8.11120033       2.02719998       14.1708002    
 Al   10.1338396       0.00000000       14.1727896    
 Al   10.1201000       2.02802992       12.1457100    
 Al   8.10499001       4.05756998      -0.00000000    
 Al   8.09051991       6.07155991       2.02665997    
 Al   10.1201000       4.05228996       2.02802992    
 Al   10.1213703       6.08290005      -0.00000000    
 Al   8.09545040       4.05168009       4.05168009    
 Al   8.09451008       6.07561016       6.07561016    
 Al   10.1188498       4.05018997       6.07514000    
 Al   10.1188498       6.07514000       4.05018997    
 Al   8.09358025       4.04511023       8.09899998    
 Al   8.09451008       6.07561016       10.1223898    
 Al   10.1188498       4.05018997       10.1228600    
 Al   10.1208200       6.07429981       8.09899998    
 Al   8.09545040       4.05168009       12.1463203    
 Al   8.09051991       6.07155991       14.1713400    
 Al   10.1201000       4.05228996       14.1699696    
 Al   10.1188498       6.07514000       12.1478100    
 Al   8.09329033       8.09899998      -0.00000000    
 Al   8.09051991       10.1264400       2.02665997    
 Al   10.1220598       8.09899998       2.02785993    
 Al   10.1213703       10.1150999      -0.00000000    
 Al   8.09358025       8.09899998       4.04511023    
 Al   8.09451008       10.1223898       6.07561016    
 Al   10.1208200       8.09899998       6.07429981    
 Al   10.1188498       10.1228600       4.05018997    
 Al   8.09449959       8.09899998       8.09899998    
 Al   8.09451008       10.1223898       10.1223898    
 Al   10.1208200       8.09899998       10.1237001    
 Al   10.1208200       10.1237001       8.09899998    
 Al   8.09358025       8.09899998       12.1528902    
 Al   8.09051991       10.1264400       14.1713400    
 Al   10.1220598       8.09899998       14.1701403    
 Al   10.1188498       10.1228600       12.1478100    
 Al   8.10499001       12.1404305      -0.00000000    
 Al   8.11120033       14.1708002       2.02719998    
 Al   10.1201000       12.1457100       2.02802992    
 Al   10.1338396       14.1727896      -0.00000000    
 Al   8.09545040       12.1463203       4.05168009    
 Al   8.09051991       14.1713400       6.07155991    
 Al   10.1188498       12.1478100       6.07514000    
 Al   10.1201000       14.1699696       4.05228996    
 Al   8.09358025       12.1528902       8.09899998    
 Al   8.09051991       14.1713400       10.1264400    
 Al   10.1188498       12.1478100       10.1228600    
 Al   10.1220598       14.1701403       8.09899998    
 Al   8.09545040       12.1463203       12.1463203    
 Al   8.11120033       14.1708002       14.1708002    
 Al   10.1201000       12.1457100       14.1699696    
 Al   10.1201000       14.1699696       12.1457100    
 Al   12.1686096       0.00000000      -0.00000000    
 Al   12.1412001       2.02802992       2.02802992    
 Al   14.1309204       0.00000000       2.08230996    
 Al   14.1309204       2.08230996      -0.00000000    
 Al   12.1289301       0.00000000       4.06937981    
 Al   12.1456900       2.02795005       6.08100986    
 Al   14.1784401       0.00000000       6.07604980    
 Al   14.1737003       2.02413011       4.05805016    
 Al   12.1514196       0.00000000       8.09899998    
 Al   12.1456900       2.02795005       10.1169901    
 Al   14.1784401       0.00000000       10.1219501    
 Al   14.1777697       2.02504992       8.09899998    
 Al   12.1289301       0.00000000       12.1286201    
 Al   12.1412001       2.02802992       14.1699696    
 Al   14.1309204       0.00000000       14.1156902    
 Al   14.1737003       2.02413011       12.1399498    
 Al   12.1289301       4.06937981      -0.00000000    
 Al   12.1456900       6.08100986       2.02795005    
 Al   14.1737003       4.05805016       2.02413011    
 Al   14.1784401       6.07604980      -0.00000000    
 Al   12.1517000       4.04932022       4.04932022    
 Al   12.1505404       6.07493019       6.07493019    
 Al   14.1775599       4.05064011       6.07611990    
 Al   14.1775599       6.07611990       4.05064011    
 Al   12.1510000       4.05326986       8.09899998    
 Al   12.1505404       6.07493019       10.1230698    
 Al   14.1775599       4.05064011       10.1218796    
 Al   14.1779203       6.07496977       8.09899998    
 Al   12.1517000       4.04932022       12.1486797    
 Al   12.1456900       6.08100986       14.1700497    
 Al   14.1737003       4.05805016       14.1738701    
 Al   14.1775599       6.07611990       12.1473598    
 Al   12.1514196       8.09899998      -0.00000000    
 Al   12.1456900       10.1169901       2.02795005    
 Al   14.1777697       8.09899998       2.02504992    
 Al   14.1784401       10.1219501      -0.00000000    
 Al   12.1510000       8.09899998       4.05326986    
 Al   12.1505404       10.1230698       6.07493019    
 Al   14.1779203       8.09899998       6.07496977    
 Al   14.1775599       10.1218796       4.05064011    
 Al   12.1524000       8.09899998       8.09899998    
 Al   12.1505404       10.1230698       10.1230698    
 Al   14.1779203       8.09899998       10.1230297    
 Al   14.1779203       10.1230297       8.09899998    
 Al   12.1510000       8.09899998       12.1447296    
 Al   12.1456900       10.1169901       14.1700497    
 Al   14.1777697       8.09899998       14.1729498    
 Al   14.1775599       10.1218796       12.1473598    
 Al   12.1289301       12.1286201      -0.00000000    
 Al   12.1412001       14.1699696       2.02802992    
 Al   14.1737003       12.1399498       2.02413011    
 Al   14.1309204       14.1156902      -0.00000000    
 Al   12.1517000       12.1486797       4.04932022    
 Al   12.1456900       14.1700497       6.08100986    
 Al   14.1775599       12.1473598       6.07611990    
 Al   14.1737003       14.1738701       4.05805016    
 Al   12.1510000       12.1447296       8.09899998    
 Al   12.1456900       14.1700497       10.1169901    
 Al   14.1775599       12.1473598       10.1218796    
 Al   14.1777697       14.1729498       8.09899998    
 Al   12.1517000       12.1486797       12.1486797    
 Al   12.1412001       14.1699696       14.1699696    
 Al   14.1737003       12.1399498       14.1738701    
 Al   14.1737003       14.1738701       12.1399498    
 O    1.48484004       0.00000000      -0.00000000    
