          12
 Energy:   16.395619199999999      en   16.431459199999999      edisp  -3.5839999999999997E-002
 X   0.00000000       0.00000000       0.00000000    
 X   14.5000000       0.00000000       0.00000000    
 X   0.00000000       14.5000000       0.00000000    
 X   0.00000000       0.00000000       14.5000000    
 X   14.5000000       14.5000000       0.00000000    
 X   14.5000000       0.00000000       14.5000000    
 X   0.00000000       14.5000000       14.5000000    
 X   14.5000000       14.5000000       14.5000000    
 O    0.00000000       0.00000000       0.00000000    
 O    1.20000005       0.00000000       0.00000000    
 O    2.00000000       0.00000000       0.00000000    
 O    3.20000005       0.00000000       0.00000000    
