         258
 Energy:  -259.26384089999999     
 X   0.00000000       0.00000000       0.00000000    
 X   10.5415001       0.00000000       0.00000000    
 X   0.00000000       10.5415001       0.00000000    
 X   0.00000000       0.00000000       10.5415001    
 X   10.5415001       10.5415001       0.00000000    
 X   10.5415001       0.00000000       10.5415001    
 X   0.00000000       10.5415001       10.5415001    
 X   10.5415001       10.5415001       10.5415001    
 Ni   0.00000000       0.00000000       0.00000000    
 Ni   0.00000000       0.00000000       2.10829997    
 Ni   0.00000000       0.00000000       4.21659994    
 Ni   0.00000000       0.00000000       6.32490015    
 Ni   0.00000000       0.00000000       8.43319988    
 Ni   0.00000000       2.10829997       0.00000000    
 Ni   0.00000000       2.10829997       2.10829997    
 Ni   0.00000000       2.10829997       4.21659994    
 Ni   0.00000000       2.10829997       6.32490015    
 Ni   0.00000000       2.10829997       8.43319988    
 Ni   0.00000000       4.21659994       0.00000000    
 Ni   0.00000000       4.21659994       2.10829997    
 Ni   0.00000000       4.21659994       4.21659994    
 Ni   0.00000000       4.21659994       6.32490015    
 Ni   0.00000000       4.21659994       8.43319988    
 Ni   0.00000000       6.32490015       0.00000000    
 Ni   0.00000000       6.32490015       2.10829997    
 Ni   0.00000000       6.32490015       4.21659994    
 Ni   0.00000000       6.32490015       6.32490015    
 Ni   0.00000000       6.32490015       8.43319988    
 Ni   0.00000000       8.43319988       0.00000000    
 Ni   0.00000000       8.43319988       2.10829997    
 Ni   0.00000000       8.43319988       4.21659994    
 Ni   0.00000000       8.43319988       6.32490015    
 Ni   0.00000000       8.43319988       8.43319988    
 Ni   2.10829997       0.00000000       0.00000000    
 Ni   2.10829997       0.00000000       2.10829997    
 Ni   2.10829997       0.00000000       4.21659994    
 Ni   2.10829997       0.00000000       6.32490015    
 Ni   2.10829997       0.00000000       8.43319988    
 Ni   2.10829997       2.10829997       0.00000000    
 Ni   2.10829997       2.10829997       2.10829997    
 Ni   2.10829997       2.10829997       4.21659994    
 Ni   2.10829997       2.10829997       6.32490015    
 Ni   2.10829997       2.10829997       8.43319988    
 Ni   2.10829997       4.21659994       0.00000000    
 Ni   2.10829997       4.21659994       2.10829997    
 Ni   2.10829997       4.21659994       4.21659994    
 Ni   2.10829997       4.21659994       6.32490015    
 Ni   2.10829997       4.21659994       8.43319988    
 Ni   2.10829997       6.32490015       0.00000000    
 Ni   2.10829997       6.32490015       2.10829997    
 Ni   2.10829997       6.32490015       4.21659994    
 Ni   2.10829997       6.32490015       6.32490015    
 Ni   2.10829997       6.32490015       8.43319988    
 Ni   2.10829997       8.43319988       0.00000000    
 Ni   2.10829997       8.43319988       2.10829997    
 Ni   2.10829997       8.43319988       4.21659994    
 Ni   2.10829997       8.43319988       6.32490015    
 Ni   2.10829997       8.43319988       8.43319988    
 Ni   4.21659994       0.00000000       0.00000000    
 Ni   4.21659994       0.00000000       2.10829997    
 Ni   4.21659994       0.00000000       4.21659994    
 Ni   4.21659994       0.00000000       6.32490015    
 Ni   4.21659994       0.00000000       8.43319988    
 Ni   4.21659994       2.10829997       0.00000000    
 Ni   4.21659994       2.10829997       2.10829997    
 Ni   4.21659994       2.10829997       4.21659994    
 Ni   4.21659994       2.10829997       6.32490015    
 Ni   4.21659994       2.10829997       8.43319988    
 Ni   4.21659994       4.21659994       0.00000000    
 Ni   4.21659994       4.21659994       2.10829997    
 Ni   4.21659994       4.21659994       4.21659994    
 Ni   4.21659994       4.21659994       6.32490015    
 Ni   4.21659994       4.21659994       8.43319988    
 Ni   4.21659994       6.32490015       0.00000000    
 Ni   4.21659994       6.32490015       2.10829997    
 Ni   4.21659994       6.32490015       4.21659994    
 Ni   4.21659994       6.32490015       6.32490015    
 Ni   4.21659994       6.32490015       8.43319988    
 Ni   4.21659994       8.43319988       0.00000000    
 Ni   4.21659994       8.43319988       2.10829997    
 Ni   4.21659994       8.43319988       4.21659994    
 Ni   4.21659994       8.43319988       6.32490015    
 Ni   4.21659994       8.43319988       8.43319988    
 Ni   6.32490015       0.00000000       0.00000000    
 Ni   6.32490015       0.00000000       2.10829997    
 Ni   6.32490015       0.00000000       4.21659994    
 Ni   6.32490015       0.00000000       6.32490015    
 Ni   6.32490015       0.00000000       8.43319988    
 Ni   6.32490015       2.10829997       0.00000000    
 Ni   6.32490015       2.10829997       2.10829997    
 Ni   6.32490015       2.10829997       4.21659994    
 Ni   6.32490015       2.10829997       6.32490015    
 Ni   6.32490015       2.10829997       8.43319988    
 Ni   6.32490015       4.21659994       0.00000000    
 Ni   6.32490015       4.21659994       2.10829997    
 Ni   6.32490015       4.21659994       4.21659994    
 Ni   6.32490015       4.21659994       6.32490015    
 Ni   6.32490015       4.21659994       8.43319988    
 Ni   6.32490015       6.32490015       0.00000000    
 Ni   6.32490015       6.32490015       2.10829997    
 Ni   6.32490015       6.32490015       4.21659994    
 Ni   6.32490015       6.32490015       6.32490015    
 Ni   6.32490015       6.32490015       8.43319988    
 Ni   6.32490015       8.43319988       0.00000000    
 Ni   6.32490015       8.43319988       2.10829997    
 Ni   6.32490015       8.43319988       4.21659994    
 Ni   6.32490015       8.43319988       6.32490015    
 Ni   6.32490015       8.43319988       8.43319988    
 Ni   8.43319988       0.00000000       0.00000000    
 Ni   8.43319988       0.00000000       2.10829997    
 Ni   8.43319988       0.00000000       4.21659994    
 Ni   8.43319988       0.00000000       6.32490015    
 Ni   8.43319988       0.00000000       8.43319988    
 Ni   8.43319988       2.10829997       0.00000000    
 Ni   8.43319988       2.10829997       2.10829997    
 Ni   8.43319988       2.10829997       4.21659994    
 Ni   8.43319988       2.10829997       6.32490015    
 Ni   8.43319988       2.10829997       8.43319988    
 Ni   8.43319988       4.21659994       0.00000000    
 Ni   8.43319988       4.21659994       2.10829997    
 Ni   8.43319988       4.21659994       4.21659994    
 Ni   8.43319988       4.21659994       6.32490015    
 Ni   8.43319988       4.21659994       8.43319988    
 Ni   8.43319988       6.32490015       0.00000000    
 Ni   8.43319988       6.32490015       2.10829997    
 Ni   8.43319988       6.32490015       4.21659994    
 Ni   8.43319988       6.32490015       6.32490015    
 Ni   8.43319988       6.32490015       8.43319988    
 Ni   8.43319988       8.43319988       0.00000000    
 Ni   8.43319988       8.43319988       2.10829997    
 Ni   8.43319988       8.43319988       4.21659994    
 Ni   8.43319988       8.43319988       6.32490015    
 Ni   8.43319988       8.43319988       8.43319988    
 O    1.05414999       1.05414999       1.05414999    
 O    1.05414999       1.05414999       3.16245008    
 O    1.05414999       1.05414999       5.27075005    
 O    1.05414999       1.05414999       7.37904978    
 O    1.05414999       1.05414999       9.48735046    
 O    1.05414999       3.16245008       1.05414999    
 O    1.05414999       3.16245008       3.16245008    
 O    1.05414999       3.16245008       5.27075005    
 O    1.05414999       3.16245008       7.37904978    
 O    1.05414999       3.16245008       9.48735046    
 O    1.05414999       5.27075005       1.05414999    
 O    1.05414999       5.27075005       3.16245008    
 O    1.05414999       5.27075005       5.27075005    
 O    1.05414999       5.27075005       7.37904978    
 O    1.05414999       5.27075005       9.48735046    
 O    1.05414999       7.37904978       1.05414999    
 O    1.05414999       7.37904978       3.16245008    
 O    1.05414999       7.37904978       5.27075005    
 O    1.05414999       7.37904978       7.37904978    
 O    1.05414999       7.37904978       9.48735046    
 O    1.05414999       9.48735046       1.05414999    
 O    1.05414999       9.48735046       3.16245008    
 O    1.05414999       9.48735046       5.27075005    
 O    1.05414999       9.48735046       7.37904978    
 O    1.05414999       9.48735046       9.48735046    
 O    3.16245008       1.05414999       1.05414999    
 O    3.16245008       1.05414999       3.16245008    
 O    3.16245008       1.05414999       5.27075005    
 O    3.16245008       1.05414999       7.37904978    
 O    3.16245008       1.05414999       9.48735046    
 O    3.16245008       3.16245008       1.05414999    
 O    3.16245008       3.16245008       3.16245008    
 O    3.16245008       3.16245008       5.27075005    
 O    3.16245008       3.16245008       7.37904978    
 O    3.16245008       3.16245008       9.48735046    
 O    3.16245008       5.27075005       1.05414999    
 O    3.16245008       5.27075005       3.16245008    
 O    3.16245008       5.27075005       5.27075005    
 O    3.16245008       5.27075005       7.37904978    
 O    3.16245008       5.27075005       9.48735046    
 O    3.16245008       7.37904978       1.05414999    
 O    3.16245008       7.37904978       3.16245008    
 O    3.16245008       7.37904978       5.27075005    
 O    3.16245008       7.37904978       7.37904978    
 O    3.16245008       7.37904978       9.48735046    
 O    3.16245008       9.48735046       1.05414999    
 O    3.16245008       9.48735046       3.16245008    
 O    3.16245008       9.48735046       5.27075005    
 O    3.16245008       9.48735046       7.37904978    
 O    3.16245008       9.48735046       9.48735046    
 O    5.27075005       1.05414999       1.05414999    
 O    5.27075005       1.05414999       3.16245008    
 O    5.27075005       1.05414999       5.27075005    
 O    5.27075005       1.05414999       7.37904978    
 O    5.27075005       1.05414999       9.48735046    
 O    5.27075005       3.16245008       1.05414999    
 O    5.27075005       3.16245008       3.16245008    
 O    5.27075005       3.16245008       5.27075005    
 O    5.27075005       3.16245008       7.37904978    
 O    5.27075005       3.16245008       9.48735046    
 O    5.27075005       5.27075005       1.05414999    
 O    5.27075005       5.27075005       3.16245008    
 O    5.27075005       5.27075005       5.27075005    
 O    5.27075005       5.27075005       7.37904978    
 O    5.27075005       5.27075005       9.48735046    
 O    5.27075005       7.37904978       1.05414999    
 O    5.27075005       7.37904978       3.16245008    
 O    5.27075005       7.37904978       5.27075005    
 O    5.27075005       7.37904978       7.37904978    
 O    5.27075005       7.37904978       9.48735046    
 O    5.27075005       9.48735046       1.05414999    
 O    5.27075005       9.48735046       3.16245008    
 O    5.27075005       9.48735046       5.27075005    
 O    5.27075005       9.48735046       7.37904978    
 O    5.27075005       9.48735046       9.48735046    
 O    7.37904978       1.05414999       1.05414999    
 O    7.37904978       1.05414999       3.16245008    
 O    7.37904978       1.05414999       5.27075005    
 O    7.37904978       1.05414999       7.37904978    
 O    7.37904978       1.05414999       9.48735046    
 O    7.37904978       3.16245008       1.05414999    
 O    7.37904978       3.16245008       3.16245008    
 O    7.37904978       3.16245008       5.27075005    
 O    7.37904978       3.16245008       7.37904978    
 O    7.37904978       3.16245008       9.48735046    
 O    7.37904978       5.27075005       1.05414999    
 O    7.37904978       5.27075005       3.16245008    
 O    7.37904978       5.27075005       5.27075005    
 O    7.37904978       5.27075005       7.37904978    
 O    7.37904978       5.27075005       9.48735046    
 O    7.37904978       7.37904978       1.05414999    
 O    7.37904978       7.37904978       3.16245008    
 O    7.37904978       7.37904978       5.27075005    
 O    7.37904978       7.37904978       7.37904978    
 O    7.37904978       7.37904978       9.48735046    
 O    7.37904978       9.48735046       1.05414999    
 O    7.37904978       9.48735046       3.16245008    
 O    7.37904978       9.48735046       5.27075005    
 O    7.37904978       9.48735046       7.37904978    
 O    7.37904978       9.48735046       9.48735046    
 O    9.48735046       1.05414999       1.05414999    
 O    9.48735046       1.05414999       3.16245008    
 O    9.48735046       1.05414999       5.27075005    
 O    9.48735046       1.05414999       7.37904978    
 O    9.48735046       1.05414999       9.48735046    
 O    9.48735046       3.16245008       1.05414999    
 O    9.48735046       3.16245008       3.16245008    
 O    9.48735046       3.16245008       5.27075005    
 O    9.48735046       3.16245008       7.37904978    
 O    9.48735046       3.16245008       9.48735046    
 O    9.48735046       5.27075005       1.05414999    
 O    9.48735046       5.27075005       3.16245008    
 O    9.48735046       5.27075005       5.27075005    
 O    9.48735046       5.27075005       7.37904978    
 O    9.48735046       5.27075005       9.48735046    
 O    9.48735046       7.37904978       1.05414999    
 O    9.48735046       7.37904978       3.16245008    
 O    9.48735046       7.37904978       5.27075005    
 O    9.48735046       7.37904978       7.37904978    
 O    9.48735046       7.37904978       9.48735046    
 O    9.48735046       9.48735046       1.05414999    
 O    9.48735046       9.48735046       3.16245008    
 O    9.48735046       9.48735046       5.27075005    
 O    9.48735046       9.48735046       7.37904978    
 O    9.48735046       9.48735046       9.48735046    
