         261
 Energy:  -1001.8367955000000     
 X   0.00000000       0.00000000       0.00000000    
 X   0.00000000      -17.1805725       0.00000000    
 X   0.00000000      -8.59028625      -14.8788128    
 X   30.0000000       0.00000000       0.00000000    
 X   0.00000000      -25.7708588      -14.8788128    
 X   30.0000000      -17.1805725       0.00000000    
 X   30.0000000      -8.59028625      -14.8788128    
 X   30.0000000      -25.7708588      -14.8788128    
 Al   2.47759008      -11.4537201      -6.61541986    
 Al   2.47681999      -14.3141804      -11.5749702    
 Al   2.47737002      -8.59193993      -1.65278006    
 Al   2.47685003      -17.1794605      -6.61386013    
 Al   2.47327995      -20.0440006      -11.5665998    
 Al   2.47737002      -14.3154898      -1.65278006    
 Al   2.47685003      -5.72797012      -6.61386013    
 Al   2.47681999      -8.59325027      -11.5749702    
 Al   2.48255992      -2.86343002      -1.65442002    
 Al   4.79673004      -14.3189802      -8.26626015    
 Al   4.79462004      -17.1802197      -13.2233801    
 Al   4.79860020      -11.4537201      -3.30544996    
 Al   4.79936981      -20.0440006      -8.26200008    
 Al   4.79462004      -22.9077797      -13.2233801    
 Al   4.80340004      -17.1833000      -3.30675006    
 Al   4.79673004      -8.58845043      -8.26626015    
 Al   4.79945993      -11.4537201      -13.2273397    
 Al   4.80340004      -5.72413015      -3.30675006    
 Al   7.06790018      -17.1829205      -9.92064953    
 Al   7.05971003      -11.4537201       2.91000004E-03
 Al   7.06540012      -14.3160295      -4.96104002    
 Al   7.06790018      -5.72451019      -9.92064953    
 Al   7.06872988       5.79999993E-04  -3.60000005E-04
 Al   7.07462978      -2.86343002      -4.95608997    
 Al   7.06342983      -11.4537201      -9.92078018    
 Al   7.06872988      -5.72743988      -3.60000005E-04
 Al   7.06540012      -8.59140015      -4.96104002    
 Al   9.34916973      -20.0440006      -11.5714703    
 Al   9.35120010      -14.3182096      -1.65253997    
 Al   9.35482979      -17.1799908      -6.61198997    
 Al   9.35231972      -8.59189034      -11.5713396    
 Al   9.36808014      -2.86343002      -1.65155005    
 Al   9.35482979      -5.72743988      -6.61198997    
 Al   9.35231972      -14.3155403      -11.5713396    
 Al   9.35120010      -8.58922005      -1.65253997    
 Al   9.35435009      -11.4537201      -6.61328983    
 Al   11.6409597      -22.9078808      -13.2238903    
 Al   11.6515102      -17.1802197      -3.30581999    
 Al   11.6429501      -20.0440006      -8.26562023    
 Al   11.6457796      -11.4537201      -13.2268400    
 Al   11.6515102      -5.72721004      -3.30581999    
 Al   11.6462097      -8.59628963      -8.26657009    
 Al   11.6409597      -17.1801300      -13.2238903    
 Al   11.6393700      -11.4537201      -3.30443001    
 Al   11.6462097      -14.3111401      -8.26657009    
 Al   13.9192305       1.81000005E-03  -2.09999998E-04
 Al   13.9234200      -2.86343002      -4.95858002    
 Al   13.9081602      -5.71858978      -9.92644024    
 Al   13.9192305      -5.72867012      -2.09999998E-04
 Al   13.9008503      -8.58808041      -4.95049000    
 Al   13.9085197      -11.4537201      -9.92193985    
 Al   13.9063797      -11.4537201       3.71999992E-03
 Al   13.9008503      -14.3193502      -4.95049000    
 Al   13.9081602      -17.1888409      -9.92644024    
 Al   16.2462101      -2.86343002      -1.65551996    
 Al   16.2361507      -5.71910000      -6.61119986    
 Al   16.2337799      -8.60077000      -11.5726500    
 Al   16.2368298      -8.59605026      -1.65161002    
 Al   16.2425804      -11.4537201      -6.55986977    
 Al   16.2337799      -14.3066597      -11.5726500    
 Al   16.2368298      -14.3113804      -1.65161002    
 Al   16.2361507      -17.1883297      -6.61119986    
 Al   16.2242603      -20.0440006      -11.5738497    
 Al   2.47685003      -7.16003990      -4.13344002    
 Al   2.47759008      -10.0242596      -9.09130001    
 Al   2.47685003      -12.8857899      -14.0507202    
 Al   2.47681999      -12.8891296      -4.13429022    
 Al   2.47681999      -15.7495899      -9.08876038    
 Al   2.47327995      -18.6072598      -14.0551205    
 Al   2.48255992      -18.6133404      -4.13240004    
 Al   2.47737002      -21.4761791      -9.09424973    
 Al   2.47737002      -24.3379498      -14.0509901    
 Al   4.79673004      -10.0213003      -5.78449011    
 Al   4.79673004      -12.8865700      -10.7472696    
 Al   4.79936981      -7.15509987     -0.828599989    
 Al   4.79945993      -15.7503595      -5.78533983    
 Al   4.79462004      -18.6101799      -10.7466297    
 Al   4.79462004      -12.8836699     -0.828019977    
 Al   4.80340004      -4.29407978      -5.78366995    
 Al   4.79860020      -7.15775013      -10.7462797    
 Al   4.80340004      -1.43338001     -0.828790009    
 Al   7.06342983      -12.8867903      -7.43862009    
 Al   7.06790018      -15.7512798      -12.4003296    
 Al   7.06790018      -10.0220699      -2.47704005    
 Al   7.06872988      -18.6128902      -7.43973017    
 Al   7.05971003      -21.4731998      -12.4004698    
 Al   7.06872988      -15.7488804      -2.47912002    
 Al   7.06540012      -7.16036987      -7.43965006    
 Al   7.06540012      -10.0226898      -12.3973303    
 Al   7.07462978      -4.29209995      -2.48155999    
 Al   9.35231972      -15.7471304      -9.09175014    
 Al   9.34916973      -18.6114807      -14.0526800    
 Al   9.35231972      -12.8853102      -4.13493013    
 Al   9.35120010      -21.4745998      -9.09200954    
 Al   9.35120010      -24.3390999      -14.0534697    
 Al   9.36808014      -18.6108608      -4.13383007    
 Al   9.35435009      -10.0224199      -9.09237003    
 Al   9.35482979      -12.8844299      -14.0521202    
 Al   9.35482979      -7.15816021      -4.13392019    
 Al   11.6409597      -18.6105709      -10.7462902    
 Al   11.6409597      -12.8841600     -0.827849984    
 Al   11.6457796      -15.7499199      -5.78559017    
 Al   11.6393700      -7.15685987      -10.7468004    
 Al   11.6515102      -1.43104005     -0.826590002    
 Al   11.6515102      -4.29481983      -5.78679991    
 Al   11.6462097      -12.8829098      -10.7403297    
 Al   11.6429501      -7.15823984     -0.826789975    
 Al   11.6462097      -10.0254898      -5.79112005    
 Al   13.9063797      -21.4724903      -12.4008703    
 Al   13.9192305      -15.7481403      -2.47813010    
 Al   13.9192305      -18.6133804      -7.44086981    
 Al   13.9008503      -10.0152102      -12.4054699    
 Al   13.9234200      -4.29426003      -2.48030996    
 Al   13.9008503      -7.14958000      -7.44205999    
 Al   13.9081602      -15.7592602      -12.4025602    
 Al   13.9081602      -10.0241299      -2.46901989    
 Al   13.9085197      -12.8878002      -7.43803978    
 Al   16.2368298      -24.3348904      -14.0480204    
 Al   16.2462101      -18.6142998      -4.13184023    
 Al   16.2368298      -21.4772205      -9.09838963    
 Al   16.2361507      -12.8879204      -14.0597296    
 Al   16.2361507      -7.15329981      -4.12708998    
 Al   16.2425804      -9.97616005      -9.11907005    
 Al   16.2242603      -18.6135406      -14.0514898    
 Al   16.2337799      -12.8908796      -4.14196014    
 Al   16.2337799      -15.7438297      -9.08341026    
 Al   2.46851993      -8.59053040      -6.61294985    
 Al   2.46851993      -11.4537201      -11.5721302    
 Al   2.48317003      -5.72626019      -1.65354002    
 Al   2.46851993      -14.3169003      -6.61294985    
 Al   2.47775006      -17.1774292      -11.5705996    
 Al   2.47775006      -11.4537201      -1.65682995    
 Al   2.48317003      -20.0440006      -6.61212015    
 Al   2.47775006      -22.9105701      -11.5705996    
 Al   2.48317003      -17.1811695      -1.65354002    
 Al   4.80180979      -11.4537201      -8.26601028    
 Al   4.79663992      -14.3155203      -13.2281399    
 Al   4.79663992      -8.58728981      -3.30655003    
 Al   4.79663992      -17.1819496      -8.26334000    
 Al   4.79335022      -20.0440006      -13.2256098    
 Al   4.79663992      -14.3201399      -3.30655003    
 Al   4.79663992      -5.72548008      -8.26334000    
 Al   4.79663992      -8.59191036      -13.2281399    
 Al   4.80499983      -2.86343002      -3.30640006    
 Al   7.06032991      -14.3153000      -9.91814041    
 Al   7.06126022      -8.59255028       1.30000000E-03
 Al   7.06032991      -11.4537201      -4.96174002    
 Al   7.06126022      -20.0440006      -9.92181969    
 Al   7.06126022      -14.3148899       1.30000000E-03
 Al   7.06968021      -17.1826591      -4.95839977    
 Al   7.06032991      -8.59214020      -9.91814041    
 Al   7.06968021      -2.86343002      -2.40999996E-03
 Al   7.06968021      -5.72477007      -4.95839977    
 Al   9.34731007      -17.1841908      -11.5745001    
 Al   9.34731007      -11.4537201      -1.64901996    
 Al   9.35550022      -14.3157196      -6.61362982    
 Al   9.34731007      -22.9038105      -11.5745001    
 Al   9.36155987      -17.1833096      -1.65478003    
 Al   9.36155987      -20.0440006      -6.60965014    
 Al   9.35550022      -11.4537201      -11.5707703    
 Al   9.36155987      -5.72413015      -1.65478003    
 Al   9.35550022      -8.59171009      -6.61362982    
 Al   11.6461897      -20.0440006      -13.2256098    
 Al   11.6414204      -14.3151703      -3.30519009    
 Al   11.6414204      -17.1806297      -8.26832962    
 Al   11.6414204      -8.58825016      -13.2244997    
 Al   11.6559095      -2.86343002      -3.30640006    
 Al   11.6414204      -5.72679996      -8.26832962    
 Al   11.6414204      -14.3191795      -13.2244997    
 Al   11.6414204      -8.59226990      -3.30519009    
 Al   11.6363001      -11.4537201      -8.26601028    
 Al   13.9098597      -14.3174496      -1.80000003E-04
 Al   13.9170904      -17.1864700      -4.95620012    
 Al   13.9098597      -20.0440006      -9.91884995    
 Al   13.9170904      -2.86343002      -6.80000009E-03
 Al   13.9170904      -5.72097015      -4.95620012    
 Al   13.8997202      -8.57734013      -9.92667961    
 Al   13.9098597      -8.58998013      -1.80000003E-04
 Al   13.8997202      -11.4537201      -4.94466019    
 Al   13.8997202      -14.3300896      -9.92667961    
 Al   16.2473106      -17.1830292      -1.65462005    
 Al   16.2473106      -20.0440006      -6.60997009    
 Al   16.2384109      -22.9155293      -11.5677404    
 Al   16.2473106      -5.72440004      -1.65462005    
 Al   16.1785507      -8.55128002      -6.59029007    
 Al   16.1785507      -11.4537201      -11.6174498    
 Al   16.2384109      -11.4537201      -1.66254997    
 Al   16.1785507      -14.3561497      -6.59029007    
 Al   16.2384109      -17.1724796      -11.5677404    
 Al   2.47681999      -10.0183001      -4.13429022    
 Al   2.47759008      -12.8831701      -9.09130001    
 Al   2.47737002      -15.7500496      -14.0509901    
 Al   2.47685003      -15.7473898      -4.13344002    
 Al   2.47737002      -18.6118298      -9.09424973    
 Al   2.47327995      -21.4807491      -14.0551205    
 Al   2.48255992      -4.29408979      -4.13240004    
 Al   2.47681999      -7.15783978      -9.08876038    
 Al   2.47685003      -10.0216398      -14.0507202    
 Al   4.79673004      -12.8861303      -5.78449011    
 Al   4.79860020      -15.7496796      -10.7462797    
 Al   4.79462004      -10.0237598     -0.828019977    
 Al   4.80340004      -18.6133499      -5.78366995    
 Al   4.79462004      -21.4778309      -10.7466297    
 Al   4.79936981      -15.7523298     -0.828599989    
 Al   4.79945993      -7.15707016      -5.78533983    
 Al   4.79673004      -10.0208597      -10.7472696    
 Al   4.80340004      -4.29347992     -0.828790009    
 Al   7.06540012      -15.7470598      -7.43965006    
 Al   7.05971003      -18.6148109      -12.4004698    
 Al   7.06790018      -12.8853598      -2.47704005    
 Al   7.06872988      -4.29453993      -7.43973017    
 Al   7.06790018      -7.15614986      -12.4003296    
 Al   7.07462978      -1.43475997      -2.48155999    
 Al   7.06342983      -10.0206404      -7.43862009    
 Al   7.06540012      -12.8847504      -12.3973303    
 Al   7.06872988      -7.15854979      -2.47912002    
 Al   9.35120010      -18.6133995      -9.09200954    
 Al   9.34916973      -21.4765301      -14.0526800    
 Al   9.35482979      -15.7492704      -4.13392019    
 Al   9.35231972      -7.16029978      -9.09175014    
 Al   9.35482979      -10.0229998      -14.0521202    
 Al   9.36808014      -4.29657984      -4.13383007    
 Al   9.35435009      -12.8850098      -9.09237003    
 Al   9.35120010      -15.7489004      -14.0534697    
 Al   9.35231972      -10.0221205      -4.13493013    
 Al   11.6409597      -21.4774303      -10.7462902    
 Al   11.6429501      -15.7491903     -0.826789975    
 Al   11.6515102      -18.6126194      -5.78679991    
 Al   11.6462097      -10.0245199      -10.7403297    
 Al   11.6515102      -4.29582024     -0.826590002    
 Al   11.6457796      -7.15750980      -5.78559017    
 Al   11.6393700      -15.7505703      -10.7468004    
 Al   11.6409597      -10.0232697     -0.827849984    
 Al   11.6462097      -12.8819399      -5.79112005    
 Al   13.9081602      -7.14816999      -12.4025602    
 Al   13.9234200      -1.43260002      -2.48030996    
 Al   13.9192305      -4.29405022      -7.44086981    
 Al   13.9008503      -12.8922195      -12.4054699    
 Al   13.9192305      -7.15928984      -2.47813010    
 Al   13.9085197      -10.0196304      -7.43803978    
 Al   13.9063797      -18.6155109      -12.4008703    
 Al   13.9081602      -12.8832998      -2.46901989    
 Al   13.9008503      -15.7578497      -7.44205999    
 Al   16.2361507      -10.0195103      -14.0597296    
 Al   16.2462101      -4.29312992      -4.13184023    
 Al   16.2337799      -7.16359997      -9.08341026    
 Al   16.2368298      -15.7531204      -14.0480204    
 Al   16.2337799      -10.0165501      -4.14196014    
 Al   16.2425804      -12.9312696      -9.11907005    
 Al   16.2242603      -21.4744701      -14.0514898    
 Al   16.2361507      -15.7541304      -4.12708998    
 Al   16.2368298      -18.6107807      -9.09838963    
 O    16.9904900      -11.4537201      -8.26601028    
