          12
 Energy:  -11.911387100000001      en  -11.875537100000001      edisp  -3.5850000000000000E-002
 X   0.00000000       0.00000000       0.00000000    
 X   14.5000000       0.00000000       0.00000000    
 X   0.00000000       14.5000000       0.00000000    
 X   0.00000000       0.00000000       14.5000000    
 X   14.5000000       14.5000000       0.00000000    
 X   14.5000000       0.00000000       14.5000000    
 X   0.00000000       14.5000000       14.5000000    
 X   14.5000000       14.5000000       14.5000000    
 O    0.00000000       0.00000000       0.00000000    
 O    1.20000005       0.00000000       0.00000000    
 O   0.500000000       13.8999996       1.50000000    
 O   0.500000000      0.600000024       1.50000000    
